Program Version,EnergyPlus, Linux, VERSION 7.1.0.012, YMD=2012.07.31 17:48
! This file shows details about the branches, nodes, and other
! elements of the flow connections.
! This file is intended for use in "debugging" potential problems
! that may also be detected by the program, but may be more easily
! identified by "eye".
! This file is also intended to support software which draws a
! schematic diagram of the HVAC system.
! ===============================================================
! #Nodes,<Number of Unique Nodes>
 #Nodes,131                 
! <Node>,<NodeNumber>,<Node Name>,<Node Fluid Type>,<# Times Node Referenced After Definition>
 Node,1,ZN_1_FLR_1_SEC_1 VAV BOX OUTLET NODE NAME,Air,4
 Node,2,ZN_1_FLR_2_SEC_1 VAV BOX OUTLET NODE NAME,Air,4
 Node,3,ZN_1_FLR_3_SEC_1 VAV BOX OUTLET NODE NAME,Air,4
 Node,4,ZN_1_FLR_1_SEC_2 VAV BOX OUTLET NODE NAME,Air,4
 Node,5,ZN_1_FLR_2_SEC_2 VAV BOX OUTLET NODE NAME,Air,4
 Node,6,ZN_1_FLR_3_SEC_2 VAV BOX OUTLET NODE NAME,Air,4
 Node,7,ZN_1_FLR_1_SEC_3 VAV BOX OUTLET NODE NAME,Air,4
 Node,8,ZN_1_FLR_2_SEC_3 VAV BOX OUTLET NODE NAME,Air,4
 Node,9,ZN_1_FLR_3_SEC_3 VAV BOX OUTLET NODE NAME,Air,4
 Node,10,ZN_1_FLR_1_SEC_4 VAV BOX OUTLET NODE NAME,Air,4
 Node,11,ZN_1_FLR_2_SEC_4 VAV BOX OUTLET NODE NAME,Air,4
 Node,12,ZN_1_FLR_3_SEC_4 VAV BOX OUTLET NODE NAME,Air,4
 Node,13,ZN_1_FLR_1_SEC_5 VAV BOX OUTLET NODE NAME,Air,4
 Node,14,ZN_1_FLR_2_SEC_5 VAV BOX OUTLET NODE NAME,Air,4
 Node,15,ZN_1_FLR_3_SEC_5 VAV BOX OUTLET NODE NAME,Air,4
 Node,16,PVAV_REHEAT_1_OAINLET NODE,Air,3
 Node,17,PVAV_REHEAT_1 SUPPLY EQUIPMENT INLET NODE,Air,3
 Node,18,PVAV_REHEAT_1_OA-PVAV_REHEAT_1_COOLC 1NODE,Air,6
 Node,19,PVAV_REHEAT_1_COOLC 1-PVAV_REHEAT_1_HEATC 1NODE,Air,6
 Node,20,PVAV_REHEAT_1_HEATC 1-PVAV_REHEAT_1_FANNODE,Air,8
 Node,21,PVAV_REHEAT_1 SUPPLY EQUIPMENT OUTLET NODE,Air,9
 Node,22,HEATSYS1 SUPPLY INLET NODE,Water,2
 Node,23,HEATSYS1 PUMP-HEATSYS1 BOILERNODEVIACONNECTOR,Water,1
 Node,24,HEATSYS1 PUMP-HEATSYS1 BOILERNODE,Water,1
 Node,25,HEATSYS1 SUPPLY EQUIPMENT OUTLET NODE,Water,1
 Node,26,HEATSYS1 SUPPLY EQUIP BYPASS INLET NODE,Water,1
 Node,27,HEATSYS1 SUPPLY EQUIP BYPASS OUTLET NODE,Water,1
 Node,28,HEATSYS1 SUPPLY MIXER-HEATSYS1 SUPPLY OUTLET PIPE,Water,1
 Node,29,HEATSYS1 SUPPLY OUTLET NODE,Water,4
 Node,30,HEATSYS1 DEMAND INLET NODE,Water,2
 Node,31,HEATSYS1 DEMAND INLET PIPE-HEATSYS1 DEMAND MIXER,Water,1
 Node,32,ZN_1_FLR_1_SEC_1 VAV BOX REHEAT COIL DEMAND INLET NODE,Water,1
 Node,33,ZN_1_FLR_1_SEC_1 VAV BOX REHEAT COIL DEMAND OUTLET NODE,Water,1
 Node,34,ZN_1_FLR_2_SEC_1 VAV BOX REHEAT COIL DEMAND INLET NODE,Water,1
 Node,35,ZN_1_FLR_2_SEC_1 VAV BOX REHEAT COIL DEMAND OUTLET NODE,Water,1
 Node,36,ZN_1_FLR_3_SEC_1 VAV BOX REHEAT COIL DEMAND INLET NODE,Water,1
 Node,37,ZN_1_FLR_3_SEC_1 VAV BOX REHEAT COIL DEMAND OUTLET NODE,Water,1
 Node,38,ZN_1_FLR_1_SEC_2 VAV BOX REHEAT COIL DEMAND INLET NODE,Water,1
 Node,39,ZN_1_FLR_1_SEC_2 VAV BOX REHEAT COIL DEMAND OUTLET NODE,Water,1
 Node,40,ZN_1_FLR_2_SEC_2 VAV BOX REHEAT COIL DEMAND INLET NODE,Water,1
 Node,41,ZN_1_FLR_2_SEC_2 VAV BOX REHEAT COIL DEMAND OUTLET NODE,Water,1
 Node,42,ZN_1_FLR_3_SEC_2 VAV BOX REHEAT COIL DEMAND INLET NODE,Water,1
 Node,43,ZN_1_FLR_3_SEC_2 VAV BOX REHEAT COIL DEMAND OUTLET NODE,Water,1
 Node,44,ZN_1_FLR_1_SEC_3 VAV BOX REHEAT COIL DEMAND INLET NODE,Water,1
 Node,45,ZN_1_FLR_1_SEC_3 VAV BOX REHEAT COIL DEMAND OUTLET NODE,Water,1
 Node,46,ZN_1_FLR_2_SEC_3 VAV BOX REHEAT COIL DEMAND INLET NODE,Water,1
 Node,47,ZN_1_FLR_2_SEC_3 VAV BOX REHEAT COIL DEMAND OUTLET NODE,Water,1
 Node,48,ZN_1_FLR_3_SEC_3 VAV BOX REHEAT COIL DEMAND INLET NODE,Water,1
 Node,49,ZN_1_FLR_3_SEC_3 VAV BOX REHEAT COIL DEMAND OUTLET NODE,Water,1
 Node,50,ZN_1_FLR_1_SEC_4 VAV BOX REHEAT COIL DEMAND INLET NODE,Water,1
 Node,51,ZN_1_FLR_1_SEC_4 VAV BOX REHEAT COIL DEMAND OUTLET NODE,Water,1
 Node,52,ZN_1_FLR_2_SEC_4 VAV BOX REHEAT COIL DEMAND INLET NODE,Water,1
 Node,53,ZN_1_FLR_2_SEC_4 VAV BOX REHEAT COIL DEMAND OUTLET NODE,Water,1
 Node,54,ZN_1_FLR_3_SEC_4 VAV BOX REHEAT COIL DEMAND INLET NODE,Water,1
 Node,55,ZN_1_FLR_3_SEC_4 VAV BOX REHEAT COIL DEMAND OUTLET NODE,Water,1
 Node,56,ZN_1_FLR_1_SEC_5 VAV BOX REHEAT COIL DEMAND INLET NODE,Water,1
 Node,57,ZN_1_FLR_1_SEC_5 VAV BOX REHEAT COIL DEMAND OUTLET NODE,Water,1
 Node,58,ZN_1_FLR_2_SEC_5 VAV BOX REHEAT COIL DEMAND INLET NODE,Water,1
 Node,59,ZN_1_FLR_2_SEC_5 VAV BOX REHEAT COIL DEMAND OUTLET NODE,Water,1
 Node,60,ZN_1_FLR_3_SEC_5 VAV BOX REHEAT COIL DEMAND INLET NODE,Water,1
 Node,61,ZN_1_FLR_3_SEC_5 VAV BOX REHEAT COIL DEMAND OUTLET NODE,Water,1
 Node,62,PVAV_REHEAT_1_HEATC 1 DEMAND INLET NODE,Water,2
 Node,63,PVAV_REHEAT_1_HEATC 1 DEMAND OUTLET NODE,Water,1
 Node,64,HEATSYS1 DEMAND BYPASS PIPE INLET NODE,Water,1
 Node,65,HEATSYS1 DEMAND BYPASS PIPE OUTLET NODE,Water,1
 Node,66,HEATSYS1 DEMAND MIXER-HEATSYS1 DEMAND OUTLET PIPE,Water,1
 Node,67,HEATSYS1 DEMAND OUTLET NODE,Water,2
 Node,68,PVAV_REHEAT_1_COOLC 1_CONDAIRINLETNODE,Air,1
 Node,69,ZN_1_FLR_1_SEC_1 AIR NODE,Air,0
 Node,70,ZN_1_FLR_1_SEC_1 RETURN AIR NODE NAME,Air,1
 Node,71,ZN_1_FLR_2_SEC_1 AIR NODE,Air,0
 Node,72,ZN_1_FLR_2_SEC_1 RETURN AIR NODE NAME,Air,1
 Node,73,ZN_1_FLR_3_SEC_1 AIR NODE,Air,0
 Node,74,ZN_1_FLR_3_SEC_1 RETURN AIR NODE NAME,Air,1
 Node,75,ZN_1_FLR_1_SEC_2 AIR NODE,Air,0
 Node,76,ZN_1_FLR_1_SEC_2 RETURN AIR NODE NAME,Air,1
 Node,77,ZN_1_FLR_2_SEC_2 AIR NODE,Air,0
 Node,78,ZN_1_FLR_2_SEC_2 RETURN AIR NODE NAME,Air,1
 Node,79,ZN_1_FLR_3_SEC_2 AIR NODE,Air,0
 Node,80,ZN_1_FLR_3_SEC_2 RETURN AIR NODE NAME,Air,1
 Node,81,ZN_1_FLR_1_SEC_3 AIR NODE,Air,0
 Node,82,ZN_1_FLR_1_SEC_3 RETURN AIR NODE NAME,Air,1
 Node,83,ZN_1_FLR_2_SEC_3 AIR NODE,Air,0
 Node,84,ZN_1_FLR_2_SEC_3 RETURN AIR NODE NAME,Air,1
 Node,85,ZN_1_FLR_3_SEC_3 AIR NODE,Air,0
 Node,86,ZN_1_FLR_3_SEC_3 RETURN AIR NODE NAME,Air,1
 Node,87,ZN_1_FLR_1_SEC_4 AIR NODE,Air,0
 Node,88,ZN_1_FLR_1_SEC_4 RETURN AIR NODE NAME,Air,1
 Node,89,ZN_1_FLR_2_SEC_4 AIR NODE,Air,0
 Node,90,ZN_1_FLR_2_SEC_4 RETURN AIR NODE NAME,Air,1
 Node,91,ZN_1_FLR_3_SEC_4 AIR NODE,Air,0
 Node,92,ZN_1_FLR_3_SEC_4 RETURN AIR NODE NAME,Air,1
 Node,93,ZN_1_FLR_1_SEC_5 AIR NODE,Air,0
 Node,94,ZN_1_FLR_1_SEC_5 RETURN AIR NODE NAME,Air,1
 Node,95,ZN_1_FLR_2_SEC_5 AIR NODE,Air,0
 Node,96,ZN_1_FLR_2_SEC_5 RETURN AIR NODE NAME,Air,1
 Node,97,ZN_1_FLR_3_SEC_5 AIR NODE,Air,0
 Node,98,ZN_1_FLR_3_SEC_5 RETURN AIR NODE NAME,Air,1
 Node,99,PVAV_REHEAT_1 ZONE EQUIPMENT INLET NODE,Air,2
 Node,100,PVAV_REHEAT_1 ZONE EQUIPMENT OUTLET NODE,Air,2
 Node,101,ZN_1_FLR_1_SEC_1 VAV BOX INLET NODE NAME,Air,1
 Node,102,ZN_1_FLR_2_SEC_1 VAV BOX INLET NODE NAME,Air,1
 Node,103,ZN_1_FLR_3_SEC_1 VAV BOX INLET NODE NAME,Air,1
 Node,104,ZN_1_FLR_1_SEC_2 VAV BOX INLET NODE NAME,Air,1
 Node,105,ZN_1_FLR_2_SEC_2 VAV BOX INLET NODE NAME,Air,1
 Node,106,ZN_1_FLR_3_SEC_2 VAV BOX INLET NODE NAME,Air,1
 Node,107,ZN_1_FLR_1_SEC_3 VAV BOX INLET NODE NAME,Air,1
 Node,108,ZN_1_FLR_2_SEC_3 VAV BOX INLET NODE NAME,Air,1
 Node,109,ZN_1_FLR_3_SEC_3 VAV BOX INLET NODE NAME,Air,1
 Node,110,ZN_1_FLR_1_SEC_4 VAV BOX INLET NODE NAME,Air,1
 Node,111,ZN_1_FLR_2_SEC_4 VAV BOX INLET NODE NAME,Air,1
 Node,112,ZN_1_FLR_3_SEC_4 VAV BOX INLET NODE NAME,Air,1
 Node,113,ZN_1_FLR_1_SEC_5 VAV BOX INLET NODE NAME,Air,1
 Node,114,ZN_1_FLR_2_SEC_5 VAV BOX INLET NODE NAME,Air,1
 Node,115,ZN_1_FLR_3_SEC_5 VAV BOX INLET NODE NAME,Air,1
 Node,116,ZN_1_FLR_1_SEC_1 VAV BOX DAMPER NODE,Air,1
 Node,117,ZN_1_FLR_2_SEC_1 VAV BOX DAMPER NODE,Air,1
 Node,118,ZN_1_FLR_3_SEC_1 VAV BOX DAMPER NODE,Air,1
 Node,119,ZN_1_FLR_1_SEC_2 VAV BOX DAMPER NODE,Air,1
 Node,120,ZN_1_FLR_2_SEC_2 VAV BOX DAMPER NODE,Air,1
 Node,121,ZN_1_FLR_3_SEC_2 VAV BOX DAMPER NODE,Air,1
 Node,122,ZN_1_FLR_1_SEC_3 VAV BOX DAMPER NODE,Air,1
 Node,123,ZN_1_FLR_2_SEC_3 VAV BOX DAMPER NODE,Air,1
 Node,124,ZN_1_FLR_3_SEC_3 VAV BOX DAMPER NODE,Air,1
 Node,125,ZN_1_FLR_1_SEC_4 VAV BOX DAMPER NODE,Air,1
 Node,126,ZN_1_FLR_2_SEC_4 VAV BOX DAMPER NODE,Air,1
 Node,127,ZN_1_FLR_3_SEC_4 VAV BOX DAMPER NODE,Air,1
 Node,128,ZN_1_FLR_1_SEC_5 VAV BOX DAMPER NODE,Air,1
 Node,129,ZN_1_FLR_2_SEC_5 VAV BOX DAMPER NODE,Air,1
 Node,130,ZN_1_FLR_3_SEC_5 VAV BOX DAMPER NODE,Air,1
 Node,131,PVAV_REHEAT_1_OARELIEF NODE,Air,1
! ===============================================================
! Suspicious nodes have 0 references.  It is normal for some nodes, however.
! Listing nodes with 0 references (culled from previous list):
! <Suspicious Node>,<NodeNumber>,<Node Name>,<Node Fluid Type>,<# Times Node Referenced After Definition>
 Suspicious Node,69,ZN_1_FLR_1_SEC_1 AIR NODE,Air,0
 Suspicious Node,71,ZN_1_FLR_2_SEC_1 AIR NODE,Air,0
 Suspicious Node,73,ZN_1_FLR_3_SEC_1 AIR NODE,Air,0
 Suspicious Node,75,ZN_1_FLR_1_SEC_2 AIR NODE,Air,0
 Suspicious Node,77,ZN_1_FLR_2_SEC_2 AIR NODE,Air,0
 Suspicious Node,79,ZN_1_FLR_3_SEC_2 AIR NODE,Air,0
 Suspicious Node,81,ZN_1_FLR_1_SEC_3 AIR NODE,Air,0
 Suspicious Node,83,ZN_1_FLR_2_SEC_3 AIR NODE,Air,0
 Suspicious Node,85,ZN_1_FLR_3_SEC_3 AIR NODE,Air,0
 Suspicious Node,87,ZN_1_FLR_1_SEC_4 AIR NODE,Air,0
 Suspicious Node,89,ZN_1_FLR_2_SEC_4 AIR NODE,Air,0
 Suspicious Node,91,ZN_1_FLR_3_SEC_4 AIR NODE,Air,0
 Suspicious Node,93,ZN_1_FLR_1_SEC_5 AIR NODE,Air,0
 Suspicious Node,95,ZN_1_FLR_2_SEC_5 AIR NODE,Air,0
 Suspicious Node,97,ZN_1_FLR_3_SEC_5 AIR NODE,Air,0
! ===============================================================
! <#Branch Lists>,<Number of Branch Lists>
 #Branch Lists,3
! <Branch List>,<Branch List Count>,<Branch List Name>,<Loop Name>,<Loop Type>,<Number of Branches>
! <Branch>,<Branch Count>,<Branch Name>,<Loop Name>,<Loop Type>,<Branch Inlet Node Name>,<Branch Outlet Node Name>
 Branch List,1,PVAV_REHEAT_1 AIR LOOP BRANCHES,PVAV_REHEAT_1,Air,1
   Branch,1,PVAV_REHEAT_1 AIR LOOP MAIN BRANCH,PVAV_REHEAT_1,Air,PVAV_REHEAT_1 SUPPLY EQUIPMENT INLET NODE,PVAV_REHEAT_1 SUPPLY EQUIPMENT OUTLET NODE
 Branch List,2,HEATSYS1 SUPPLY BRANCHES,HEATSYS1,Plant Supply,4
   Branch,1,HEATSYS1 SUPPLY INLET BRANCH,HEATSYS1,Plant Supply,HEATSYS1 SUPPLY INLET NODE,HEATSYS1 PUMP-HEATSYS1 BOILERNODEVIACONNECTOR
   Branch,2,HEATSYS1 SUPPLY EQUIPMENT BRANCH,HEATSYS1,Plant Supply,HEATSYS1 PUMP-HEATSYS1 BOILERNODE,HEATSYS1 SUPPLY EQUIPMENT OUTLET NODE
   Branch,3,HEATSYS1 SUPPLY EQUIPMENT BYPASS BRANCH,HEATSYS1,Plant Supply,HEATSYS1 SUPPLY EQUIP BYPASS INLET NODE,HEATSYS1 SUPPLY EQUIP BYPASS OUTLET NODE
   Branch,4,HEATSYS1 SUPPLY OUTLET BRANCH,HEATSYS1,Plant Supply,HEATSYS1 SUPPLY MIXER-HEATSYS1 SUPPLY OUTLET PIPE,HEATSYS1 SUPPLY OUTLET NODE
 Branch List,3,HEATSYS1 DEMAND BRANCHES,HEATSYS1,Plant Demand,19
   Branch,1,HEATSYS1 DEMAND INLET BRANCH,HEATSYS1,Plant Demand,HEATSYS1 DEMAND INLET NODE,HEATSYS1 DEMAND INLET PIPE-HEATSYS1 DEMAND MIXER
   Branch,2,HEATSYS1 DEMAND LOAD BRANCH 1,HEATSYS1,Plant Demand,ZN_1_FLR_1_SEC_1 VAV BOX REHEAT COIL DEMAND INLET NODE,ZN_1_FLR_1_SEC_1 VAV BOX REHEAT COIL DEMAND OUTLET NODE
   Branch,3,HEATSYS1 DEMAND LOAD BRANCH 2,HEATSYS1,Plant Demand,ZN_1_FLR_2_SEC_1 VAV BOX REHEAT COIL DEMAND INLET NODE,ZN_1_FLR_2_SEC_1 VAV BOX REHEAT COIL DEMAND OUTLET NODE
   Branch,4,HEATSYS1 DEMAND LOAD BRANCH 3,HEATSYS1,Plant Demand,ZN_1_FLR_3_SEC_1 VAV BOX REHEAT COIL DEMAND INLET NODE,ZN_1_FLR_3_SEC_1 VAV BOX REHEAT COIL DEMAND OUTLET NODE
   Branch,5,HEATSYS1 DEMAND LOAD BRANCH 4,HEATSYS1,Plant Demand,ZN_1_FLR_1_SEC_2 VAV BOX REHEAT COIL DEMAND INLET NODE,ZN_1_FLR_1_SEC_2 VAV BOX REHEAT COIL DEMAND OUTLET NODE
   Branch,6,HEATSYS1 DEMAND LOAD BRANCH 5,HEATSYS1,Plant Demand,ZN_1_FLR_2_SEC_2 VAV BOX REHEAT COIL DEMAND INLET NODE,ZN_1_FLR_2_SEC_2 VAV BOX REHEAT COIL DEMAND OUTLET NODE
   Branch,7,HEATSYS1 DEMAND LOAD BRANCH 6,HEATSYS1,Plant Demand,ZN_1_FLR_3_SEC_2 VAV BOX REHEAT COIL DEMAND INLET NODE,ZN_1_FLR_3_SEC_2 VAV BOX REHEAT COIL DEMAND OUTLET NODE
   Branch,8,HEATSYS1 DEMAND LOAD BRANCH 7,HEATSYS1,Plant Demand,ZN_1_FLR_1_SEC_3 VAV BOX REHEAT COIL DEMAND INLET NODE,ZN_1_FLR_1_SEC_3 VAV BOX REHEAT COIL DEMAND OUTLET NODE
   Branch,9,HEATSYS1 DEMAND LOAD BRANCH 8,HEATSYS1,Plant Demand,ZN_1_FLR_2_SEC_3 VAV BOX REHEAT COIL DEMAND INLET NODE,ZN_1_FLR_2_SEC_3 VAV BOX REHEAT COIL DEMAND OUTLET NODE
   Branch,10,HEATSYS1 DEMAND LOAD BRANCH 9,HEATSYS1,Plant Demand,ZN_1_FLR_3_SEC_3 VAV BOX REHEAT COIL DEMAND INLET NODE,ZN_1_FLR_3_SEC_3 VAV BOX REHEAT COIL DEMAND OUTLET NODE
   Branch,11,HEATSYS1 DEMAND LOAD BRANCH 10,HEATSYS1,Plant Demand,ZN_1_FLR_1_SEC_4 VAV BOX REHEAT COIL DEMAND INLET NODE,ZN_1_FLR_1_SEC_4 VAV BOX REHEAT COIL DEMAND OUTLET NODE
   Branch,12,HEATSYS1 DEMAND LOAD BRANCH 11,HEATSYS1,Plant Demand,ZN_1_FLR_2_SEC_4 VAV BOX REHEAT COIL DEMAND INLET NODE,ZN_1_FLR_2_SEC_4 VAV BOX REHEAT COIL DEMAND OUTLET NODE
   Branch,13,HEATSYS1 DEMAND LOAD BRANCH 12,HEATSYS1,Plant Demand,ZN_1_FLR_3_SEC_4 VAV BOX REHEAT COIL DEMAND INLET NODE,ZN_1_FLR_3_SEC_4 VAV BOX REHEAT COIL DEMAND OUTLET NODE
   Branch,14,HEATSYS1 DEMAND LOAD BRANCH 13,HEATSYS1,Plant Demand,ZN_1_FLR_1_SEC_5 VAV BOX REHEAT COIL DEMAND INLET NODE,ZN_1_FLR_1_SEC_5 VAV BOX REHEAT COIL DEMAND OUTLET NODE
   Branch,15,HEATSYS1 DEMAND LOAD BRANCH 14,HEATSYS1,Plant Demand,ZN_1_FLR_2_SEC_5 VAV BOX REHEAT COIL DEMAND INLET NODE,ZN_1_FLR_2_SEC_5 VAV BOX REHEAT COIL DEMAND OUTLET NODE
   Branch,16,HEATSYS1 DEMAND LOAD BRANCH 15,HEATSYS1,Plant Demand,ZN_1_FLR_3_SEC_5 VAV BOX REHEAT COIL DEMAND INLET NODE,ZN_1_FLR_3_SEC_5 VAV BOX REHEAT COIL DEMAND OUTLET NODE
   Branch,17,HEATSYS1 DEMAND LOAD BRANCH 16,HEATSYS1,Plant Demand,PVAV_REHEAT_1_HEATC 1 DEMAND INLET NODE,PVAV_REHEAT_1_HEATC 1 DEMAND OUTLET NODE
   Branch,18,HEATSYS1 DEMAND BYPASS BRANCH,HEATSYS1,Plant Demand,HEATSYS1 DEMAND BYPASS PIPE INLET NODE,HEATSYS1 DEMAND BYPASS PIPE OUTLET NODE
   Branch,19,HEATSYS1 DEMAND OUTLET BRANCH,HEATSYS1,Plant Demand,HEATSYS1 DEMAND MIXER-HEATSYS1 DEMAND OUTLET PIPE,HEATSYS1 DEMAND OUTLET NODE
! ===============================================================
! <#Supply Air Paths>,<Number of Supply Air Paths>
 #Supply Air Paths,1
! <Supply Air Path>,<Supply Air Path Count>,<Supply Air Path Name>,<AirLoopHVAC Name>
! <#Components on Supply Air Path>,<Number of Components>
! <Supply Air Path Component>,<Component Count>,<Component Type>,<Component Name>,<AirLoopHVAC Name>
! <#Outlet Nodes on Supply Air Path Component>,<Number of Nodes>
! <Supply Air Path Component Nodes>,<Node Count>,<Component Type>,<Component Name>,<Inlet Node Name>,<Outlet Node Name>,<AirLoopHVAC Name>
 Supply Air Path,1,PVAV_REHEAT_1 SUPPLY PATH,PVAV_REHEAT_1
   #Components on Supply Air Path,1
   Supply Air Path Component,1,AIRLOOPHVAC:ZONESPLITTER,PVAV_REHEAT_1 SUPPLY AIR SPLITTER,PVAV_REHEAT_1
     #Outlet Nodes on Supply Air Path Component,15
     Supply Air Path Component Nodes,1,AIRLOOPHVAC:ZONESPLITTER,PVAV_REHEAT_1 SUPPLY AIR SPLITTER,PVAV_REHEAT_1 ZONE EQUIPMENT INLET NODE,ZN_1_FLR_1_SEC_1 VAV BOX INLET NODE NAME,PVAV_REHEAT_1
     Supply Air Path Component Nodes,2,AIRLOOPHVAC:ZONESPLITTER,PVAV_REHEAT_1 SUPPLY AIR SPLITTER,PVAV_REHEAT_1 ZONE EQUIPMENT INLET NODE,ZN_1_FLR_2_SEC_1 VAV BOX INLET NODE NAME,PVAV_REHEAT_1
     Supply Air Path Component Nodes,3,AIRLOOPHVAC:ZONESPLITTER,PVAV_REHEAT_1 SUPPLY AIR SPLITTER,PVAV_REHEAT_1 ZONE EQUIPMENT INLET NODE,ZN_1_FLR_3_SEC_1 VAV BOX INLET NODE NAME,PVAV_REHEAT_1
     Supply Air Path Component Nodes,4,AIRLOOPHVAC:ZONESPLITTER,PVAV_REHEAT_1 SUPPLY AIR SPLITTER,PVAV_REHEAT_1 ZONE EQUIPMENT INLET NODE,ZN_1_FLR_1_SEC_2 VAV BOX INLET NODE NAME,PVAV_REHEAT_1
     Supply Air Path Component Nodes,5,AIRLOOPHVAC:ZONESPLITTER,PVAV_REHEAT_1 SUPPLY AIR SPLITTER,PVAV_REHEAT_1 ZONE EQUIPMENT INLET NODE,ZN_1_FLR_2_SEC_2 VAV BOX INLET NODE NAME,PVAV_REHEAT_1
     Supply Air Path Component Nodes,6,AIRLOOPHVAC:ZONESPLITTER,PVAV_REHEAT_1 SUPPLY AIR SPLITTER,PVAV_REHEAT_1 ZONE EQUIPMENT INLET NODE,ZN_1_FLR_3_SEC_2 VAV BOX INLET NODE NAME,PVAV_REHEAT_1
     Supply Air Path Component Nodes,7,AIRLOOPHVAC:ZONESPLITTER,PVAV_REHEAT_1 SUPPLY AIR SPLITTER,PVAV_REHEAT_1 ZONE EQUIPMENT INLET NODE,ZN_1_FLR_1_SEC_3 VAV BOX INLET NODE NAME,PVAV_REHEAT_1
     Supply Air Path Component Nodes,8,AIRLOOPHVAC:ZONESPLITTER,PVAV_REHEAT_1 SUPPLY AIR SPLITTER,PVAV_REHEAT_1 ZONE EQUIPMENT INLET NODE,ZN_1_FLR_2_SEC_3 VAV BOX INLET NODE NAME,PVAV_REHEAT_1
     Supply Air Path Component Nodes,9,AIRLOOPHVAC:ZONESPLITTER,PVAV_REHEAT_1 SUPPLY AIR SPLITTER,PVAV_REHEAT_1 ZONE EQUIPMENT INLET NODE,ZN_1_FLR_3_SEC_3 VAV BOX INLET NODE NAME,PVAV_REHEAT_1
     Supply Air Path Component Nodes,10,AIRLOOPHVAC:ZONESPLITTER,PVAV_REHEAT_1 SUPPLY AIR SPLITTER,PVAV_REHEAT_1 ZONE EQUIPMENT INLET NODE,ZN_1_FLR_1_SEC_4 VAV BOX INLET NODE NAME,PVAV_REHEAT_1
     Supply Air Path Component Nodes,11,AIRLOOPHVAC:ZONESPLITTER,PVAV_REHEAT_1 SUPPLY AIR SPLITTER,PVAV_REHEAT_1 ZONE EQUIPMENT INLET NODE,ZN_1_FLR_2_SEC_4 VAV BOX INLET NODE NAME,PVAV_REHEAT_1
     Supply Air Path Component Nodes,12,AIRLOOPHVAC:ZONESPLITTER,PVAV_REHEAT_1 SUPPLY AIR SPLITTER,PVAV_REHEAT_1 ZONE EQUIPMENT INLET NODE,ZN_1_FLR_3_SEC_4 VAV BOX INLET NODE NAME,PVAV_REHEAT_1
     Supply Air Path Component Nodes,13,AIRLOOPHVAC:ZONESPLITTER,PVAV_REHEAT_1 SUPPLY AIR SPLITTER,PVAV_REHEAT_1 ZONE EQUIPMENT INLET NODE,ZN_1_FLR_1_SEC_5 VAV BOX INLET NODE NAME,PVAV_REHEAT_1
     Supply Air Path Component Nodes,14,AIRLOOPHVAC:ZONESPLITTER,PVAV_REHEAT_1 SUPPLY AIR SPLITTER,PVAV_REHEAT_1 ZONE EQUIPMENT INLET NODE,ZN_1_FLR_2_SEC_5 VAV BOX INLET NODE NAME,PVAV_REHEAT_1
     Supply Air Path Component Nodes,15,AIRLOOPHVAC:ZONESPLITTER,PVAV_REHEAT_1 SUPPLY AIR SPLITTER,PVAV_REHEAT_1 ZONE EQUIPMENT INLET NODE,ZN_1_FLR_3_SEC_5 VAV BOX INLET NODE NAME,PVAV_REHEAT_1
! <#Nodes on Supply Air Path>,<Number of Nodes>
! <Supply Air Path Node>,<Node Type>,<Node Count>,<Node Name>,<AirLoopHVAC Name>
#Nodes on Supply Air Path,16
   Supply Air Path Node,Inlet Node,1,PVAV_REHEAT_1 ZONE EQUIPMENT INLET NODE,PVAV_REHEAT_1
   Supply Air Path Node,Outlet Node,2,ZN_1_FLR_1_SEC_1 VAV BOX INLET NODE NAME,PVAV_REHEAT_1
   Supply Air Path Node,Outlet Node,3,ZN_1_FLR_2_SEC_1 VAV BOX INLET NODE NAME,PVAV_REHEAT_1
   Supply Air Path Node,Outlet Node,4,ZN_1_FLR_3_SEC_1 VAV BOX INLET NODE NAME,PVAV_REHEAT_1
   Supply Air Path Node,Outlet Node,5,ZN_1_FLR_1_SEC_2 VAV BOX INLET NODE NAME,PVAV_REHEAT_1
   Supply Air Path Node,Outlet Node,6,ZN_1_FLR_2_SEC_2 VAV BOX INLET NODE NAME,PVAV_REHEAT_1
   Supply Air Path Node,Outlet Node,7,ZN_1_FLR_3_SEC_2 VAV BOX INLET NODE NAME,PVAV_REHEAT_1
   Supply Air Path Node,Outlet Node,8,ZN_1_FLR_1_SEC_3 VAV BOX INLET NODE NAME,PVAV_REHEAT_1
   Supply Air Path Node,Outlet Node,9,ZN_1_FLR_2_SEC_3 VAV BOX INLET NODE NAME,PVAV_REHEAT_1
   Supply Air Path Node,Outlet Node,10,ZN_1_FLR_3_SEC_3 VAV BOX INLET NODE NAME,PVAV_REHEAT_1
   Supply Air Path Node,Outlet Node,11,ZN_1_FLR_1_SEC_4 VAV BOX INLET NODE NAME,PVAV_REHEAT_1
   Supply Air Path Node,Outlet Node,12,ZN_1_FLR_2_SEC_4 VAV BOX INLET NODE NAME,PVAV_REHEAT_1
   Supply Air Path Node,Outlet Node,13,ZN_1_FLR_3_SEC_4 VAV BOX INLET NODE NAME,PVAV_REHEAT_1
   Supply Air Path Node,Outlet Node,14,ZN_1_FLR_1_SEC_5 VAV BOX INLET NODE NAME,PVAV_REHEAT_1
   Supply Air Path Node,Outlet Node,15,ZN_1_FLR_2_SEC_5 VAV BOX INLET NODE NAME,PVAV_REHEAT_1
   Supply Air Path Node,Outlet Node,16,ZN_1_FLR_3_SEC_5 VAV BOX INLET NODE NAME,PVAV_REHEAT_1
! ===============================================================
! <#Return Air Paths>,<Number of Return Air Paths>
 #Return Air Paths,1
! <Return Air Path>,<Return Air Path Count>,<Return Air Path Name>,<AirLoopHVAC Name>
! <#Components on Return Air Path>,<Number of Components>
! <Return Air Path Component>,<Component Count>,<Component Type>,<Component Name>,<AirLoopHVAC Name>
! <#Inlet Nodes on Return Air Path Component>,<Number of Nodes>
! <Return Air Path Component Nodes>,<Node Count>,<Component Type>,<Component Name>,<Inlet Node Name>,<Outlet Node Name>,<AirLoopHVAC Name>
 Return Air Path,1,PVAV_REHEAT_1 RETURN AIR PATH,PVAV_REHEAT_1
   #Components on Return Air Path,1
   Return Air Path Component,1,AIRLOOPHVAC:ZONEMIXER,PVAV_REHEAT_1 RETURN AIR MIXER,PVAV_REHEAT_1
     #Inlet Nodes on Return Air Path Component,15
     Return Air Path Component Nodes,1,AIRLOOPHVAC:ZONEMIXER,PVAV_REHEAT_1 RETURN AIR MIXER,ZN_1_FLR_1_SEC_1 RETURN AIR NODE NAME,PVAV_REHEAT_1 ZONE EQUIPMENT OUTLET NODE,PVAV_REHEAT_1
     Return Air Path Component Nodes,2,AIRLOOPHVAC:ZONEMIXER,PVAV_REHEAT_1 RETURN AIR MIXER,ZN_1_FLR_2_SEC_1 RETURN AIR NODE NAME,PVAV_REHEAT_1 ZONE EQUIPMENT OUTLET NODE,PVAV_REHEAT_1
     Return Air Path Component Nodes,3,AIRLOOPHVAC:ZONEMIXER,PVAV_REHEAT_1 RETURN AIR MIXER,ZN_1_FLR_3_SEC_1 RETURN AIR NODE NAME,PVAV_REHEAT_1 ZONE EQUIPMENT OUTLET NODE,PVAV_REHEAT_1
     Return Air Path Component Nodes,4,AIRLOOPHVAC:ZONEMIXER,PVAV_REHEAT_1 RETURN AIR MIXER,ZN_1_FLR_1_SEC_2 RETURN AIR NODE NAME,PVAV_REHEAT_1 ZONE EQUIPMENT OUTLET NODE,PVAV_REHEAT_1
     Return Air Path Component Nodes,5,AIRLOOPHVAC:ZONEMIXER,PVAV_REHEAT_1 RETURN AIR MIXER,ZN_1_FLR_2_SEC_2 RETURN AIR NODE NAME,PVAV_REHEAT_1 ZONE EQUIPMENT OUTLET NODE,PVAV_REHEAT_1
     Return Air Path Component Nodes,6,AIRLOOPHVAC:ZONEMIXER,PVAV_REHEAT_1 RETURN AIR MIXER,ZN_1_FLR_3_SEC_2 RETURN AIR NODE NAME,PVAV_REHEAT_1 ZONE EQUIPMENT OUTLET NODE,PVAV_REHEAT_1
     Return Air Path Component Nodes,7,AIRLOOPHVAC:ZONEMIXER,PVAV_REHEAT_1 RETURN AIR MIXER,ZN_1_FLR_1_SEC_3 RETURN AIR NODE NAME,PVAV_REHEAT_1 ZONE EQUIPMENT OUTLET NODE,PVAV_REHEAT_1
     Return Air Path Component Nodes,8,AIRLOOPHVAC:ZONEMIXER,PVAV_REHEAT_1 RETURN AIR MIXER,ZN_1_FLR_2_SEC_3 RETURN AIR NODE NAME,PVAV_REHEAT_1 ZONE EQUIPMENT OUTLET NODE,PVAV_REHEAT_1
     Return Air Path Component Nodes,9,AIRLOOPHVAC:ZONEMIXER,PVAV_REHEAT_1 RETURN AIR MIXER,ZN_1_FLR_3_SEC_3 RETURN AIR NODE NAME,PVAV_REHEAT_1 ZONE EQUIPMENT OUTLET NODE,PVAV_REHEAT_1
     Return Air Path Component Nodes,10,AIRLOOPHVAC:ZONEMIXER,PVAV_REHEAT_1 RETURN AIR MIXER,ZN_1_FLR_1_SEC_4 RETURN AIR NODE NAME,PVAV_REHEAT_1 ZONE EQUIPMENT OUTLET NODE,PVAV_REHEAT_1
     Return Air Path Component Nodes,11,AIRLOOPHVAC:ZONEMIXER,PVAV_REHEAT_1 RETURN AIR MIXER,ZN_1_FLR_2_SEC_4 RETURN AIR NODE NAME,PVAV_REHEAT_1 ZONE EQUIPMENT OUTLET NODE,PVAV_REHEAT_1
     Return Air Path Component Nodes,12,AIRLOOPHVAC:ZONEMIXER,PVAV_REHEAT_1 RETURN AIR MIXER,ZN_1_FLR_3_SEC_4 RETURN AIR NODE NAME,PVAV_REHEAT_1 ZONE EQUIPMENT OUTLET NODE,PVAV_REHEAT_1
     Return Air Path Component Nodes,13,AIRLOOPHVAC:ZONEMIXER,PVAV_REHEAT_1 RETURN AIR MIXER,ZN_1_FLR_1_SEC_5 RETURN AIR NODE NAME,PVAV_REHEAT_1 ZONE EQUIPMENT OUTLET NODE,PVAV_REHEAT_1
     Return Air Path Component Nodes,14,AIRLOOPHVAC:ZONEMIXER,PVAV_REHEAT_1 RETURN AIR MIXER,ZN_1_FLR_2_SEC_5 RETURN AIR NODE NAME,PVAV_REHEAT_1 ZONE EQUIPMENT OUTLET NODE,PVAV_REHEAT_1
     Return Air Path Component Nodes,15,AIRLOOPHVAC:ZONEMIXER,PVAV_REHEAT_1 RETURN AIR MIXER,ZN_1_FLR_3_SEC_5 RETURN AIR NODE NAME,PVAV_REHEAT_1 ZONE EQUIPMENT OUTLET NODE,PVAV_REHEAT_1
! <#Nodes on Return Air Path>,<Number of Nodes>
! <Return Air Path Node>,<Node Type>,<Node Count>,<Node Name>,<AirLoopHVAC Name>
   #Nodes on Return Air Path,16
   Return Air Path Node,Outlet Node,1,PVAV_REHEAT_1 ZONE EQUIPMENT OUTLET NODE,PVAV_REHEAT_1
   Return Air Path Node,Inlet Node,2,ZN_1_FLR_1_SEC_1 RETURN AIR NODE NAME,PVAV_REHEAT_1
   Return Air Path Node,Inlet Node,3,ZN_1_FLR_2_SEC_1 RETURN AIR NODE NAME,PVAV_REHEAT_1
   Return Air Path Node,Inlet Node,4,ZN_1_FLR_3_SEC_1 RETURN AIR NODE NAME,PVAV_REHEAT_1
   Return Air Path Node,Inlet Node,5,ZN_1_FLR_1_SEC_2 RETURN AIR NODE NAME,PVAV_REHEAT_1
   Return Air Path Node,Inlet Node,6,ZN_1_FLR_2_SEC_2 RETURN AIR NODE NAME,PVAV_REHEAT_1
   Return Air Path Node,Inlet Node,7,ZN_1_FLR_3_SEC_2 RETURN AIR NODE NAME,PVAV_REHEAT_1
   Return Air Path Node,Inlet Node,8,ZN_1_FLR_1_SEC_3 RETURN AIR NODE NAME,PVAV_REHEAT_1
   Return Air Path Node,Inlet Node,9,ZN_1_FLR_2_SEC_3 RETURN AIR NODE NAME,PVAV_REHEAT_1
   Return Air Path Node,Inlet Node,10,ZN_1_FLR_3_SEC_3 RETURN AIR NODE NAME,PVAV_REHEAT_1
   Return Air Path Node,Inlet Node,11,ZN_1_FLR_1_SEC_4 RETURN AIR NODE NAME,PVAV_REHEAT_1
   Return Air Path Node,Inlet Node,12,ZN_1_FLR_2_SEC_4 RETURN AIR NODE NAME,PVAV_REHEAT_1
   Return Air Path Node,Inlet Node,13,ZN_1_FLR_3_SEC_4 RETURN AIR NODE NAME,PVAV_REHEAT_1
   Return Air Path Node,Inlet Node,14,ZN_1_FLR_1_SEC_5 RETURN AIR NODE NAME,PVAV_REHEAT_1
   Return Air Path Node,Inlet Node,15,ZN_1_FLR_2_SEC_5 RETURN AIR NODE NAME,PVAV_REHEAT_1
   Return Air Path Node,Inlet Node,16,ZN_1_FLR_3_SEC_5 RETURN AIR NODE NAME,PVAV_REHEAT_1
! ===============================================================
! #Outdoor Air Nodes,<Number of Outdoor Air Nodes>
 #Outdoor Air Nodes,2                   
! <Outdoor Air Node>,<NodeNumber>,<Node Name>
 Outdoor Air Node,16,PVAV_REHEAT_1_OAINLET NODE
 Outdoor Air Node,68,PVAV_REHEAT_1_COOLC 1_CONDAIRINLETNODE
! ===============================================================
! <#Component Sets>,<Number of Component Sets>
 #Component Sets,59
! <Component Set>,<Component Set Count>,<Parent Object Type>,<Parent Object Name>,<Component Type>,<Component Name>,<Inlet Node ID>,<Outlet Node ID>,<Description>
 Component Set,1,BRANCH,PVAV_REHEAT_1 AIR LOOP MAIN BRANCH,AIRLOOPHVAC:OUTDOORAIRSYSTEM,PVAV_REHEAT_1_OA,PVAV_REHEAT_1 SUPPLY EQUIPMENT INLET NODE,PVAV_REHEAT_1_OA-PVAV_REHEAT_1_COOLC 1NODE,Air Nodes
 Component Set,2,BRANCH,PVAV_REHEAT_1 AIR LOOP MAIN BRANCH,COILSYSTEM:COOLING:DX,PVAV_REHEAT_1_COOLC 1,PVAV_REHEAT_1_OA-PVAV_REHEAT_1_COOLC 1NODE,PVAV_REHEAT_1_COOLC 1-PVAV_REHEAT_1_HEATC 1NODE,Air Nodes
 Component Set,3,BRANCH,PVAV_REHEAT_1 AIR LOOP MAIN BRANCH,COIL:HEATING:WATER,PVAV_REHEAT_1_HEATC 1,PVAV_REHEAT_1_COOLC 1-PVAV_REHEAT_1_HEATC 1NODE,PVAV_REHEAT_1_HEATC 1-PVAV_REHEAT_1_FANNODE,Air Nodes
 Component Set,4,BRANCH,PVAV_REHEAT_1 AIR LOOP MAIN BRANCH,FAN:VARIABLEVOLUME,PVAV_REHEAT_1_FAN,PVAV_REHEAT_1_HEATC 1-PVAV_REHEAT_1_FANNODE,PVAV_REHEAT_1 SUPPLY EQUIPMENT OUTLET NODE,Air Nodes
 Component Set,5,BRANCH,HEATSYS1 SUPPLY INLET BRANCH,PUMP:VARIABLESPEED,HEATSYS1 PUMP,HEATSYS1 SUPPLY INLET NODE,HEATSYS1 PUMP-HEATSYS1 BOILERNODEVIACONNECTOR,Water Nodes
 Component Set,6,BRANCH,HEATSYS1 SUPPLY EQUIPMENT BRANCH,BOILER:HOTWATER,HEATSYS1 BOILER,HEATSYS1 PUMP-HEATSYS1 BOILERNODE,HEATSYS1 SUPPLY EQUIPMENT OUTLET NODE,Hot Water Nodes
 Component Set,7,BRANCH,HEATSYS1 SUPPLY EQUIPMENT BYPASS BRANCH,PIPE:ADIABATIC,HEATSYS1 SUPPLY EQUIPMENT BYPASS PIPE,HEATSYS1 SUPPLY EQUIP BYPASS INLET NODE,HEATSYS1 SUPPLY EQUIP BYPASS OUTLET NODE,Pipe Nodes
 Component Set,8,BRANCH,HEATSYS1 SUPPLY OUTLET BRANCH,PIPE:ADIABATIC,HEATSYS1 SUPPLY OUTLET PIPE,HEATSYS1 SUPPLY MIXER-HEATSYS1 SUPPLY OUTLET PIPE,HEATSYS1 SUPPLY OUTLET NODE,Pipe Nodes
 Component Set,9,BRANCH,HEATSYS1 DEMAND INLET BRANCH,PIPE:ADIABATIC,HEATSYS1 DEMAND INLET PIPE,HEATSYS1 DEMAND INLET NODE,HEATSYS1 DEMAND INLET PIPE-HEATSYS1 DEMAND MIXER,Pipe Nodes
 Component Set,10,BRANCH,HEATSYS1 DEMAND LOAD BRANCH 1,COIL:HEATING:WATER,ZN_1_FLR_1_SEC_1 VAV BOX REHEAT COIL,ZN_1_FLR_1_SEC_1 VAV BOX REHEAT COIL DEMAND INLET NODE,ZN_1_FLR_1_SEC_1 VAV BOX REHEAT COIL DEMAND OUTLET NODE,Water Nodes
 Component Set,11,BRANCH,HEATSYS1 DEMAND LOAD BRANCH 2,COIL:HEATING:WATER,ZN_1_FLR_2_SEC_1 VAV BOX REHEAT COIL,ZN_1_FLR_2_SEC_1 VAV BOX REHEAT COIL DEMAND INLET NODE,ZN_1_FLR_2_SEC_1 VAV BOX REHEAT COIL DEMAND OUTLET NODE,Water Nodes
 Component Set,12,BRANCH,HEATSYS1 DEMAND LOAD BRANCH 3,COIL:HEATING:WATER,ZN_1_FLR_3_SEC_1 VAV BOX REHEAT COIL,ZN_1_FLR_3_SEC_1 VAV BOX REHEAT COIL DEMAND INLET NODE,ZN_1_FLR_3_SEC_1 VAV BOX REHEAT COIL DEMAND OUTLET NODE,Water Nodes
 Component Set,13,BRANCH,HEATSYS1 DEMAND LOAD BRANCH 4,COIL:HEATING:WATER,ZN_1_FLR_1_SEC_2 VAV BOX REHEAT COIL,ZN_1_FLR_1_SEC_2 VAV BOX REHEAT COIL DEMAND INLET NODE,ZN_1_FLR_1_SEC_2 VAV BOX REHEAT COIL DEMAND OUTLET NODE,Water Nodes
 Component Set,14,BRANCH,HEATSYS1 DEMAND LOAD BRANCH 5,COIL:HEATING:WATER,ZN_1_FLR_2_SEC_2 VAV BOX REHEAT COIL,ZN_1_FLR_2_SEC_2 VAV BOX REHEAT COIL DEMAND INLET NODE,ZN_1_FLR_2_SEC_2 VAV BOX REHEAT COIL DEMAND OUTLET NODE,Water Nodes
 Component Set,15,BRANCH,HEATSYS1 DEMAND LOAD BRANCH 6,COIL:HEATING:WATER,ZN_1_FLR_3_SEC_2 VAV BOX REHEAT COIL,ZN_1_FLR_3_SEC_2 VAV BOX REHEAT COIL DEMAND INLET NODE,ZN_1_FLR_3_SEC_2 VAV BOX REHEAT COIL DEMAND OUTLET NODE,Water Nodes
 Component Set,16,BRANCH,HEATSYS1 DEMAND LOAD BRANCH 7,COIL:HEATING:WATER,ZN_1_FLR_1_SEC_3 VAV BOX REHEAT COIL,ZN_1_FLR_1_SEC_3 VAV BOX REHEAT COIL DEMAND INLET NODE,ZN_1_FLR_1_SEC_3 VAV BOX REHEAT COIL DEMAND OUTLET NODE,Water Nodes
 Component Set,17,BRANCH,HEATSYS1 DEMAND LOAD BRANCH 8,COIL:HEATING:WATER,ZN_1_FLR_2_SEC_3 VAV BOX REHEAT COIL,ZN_1_FLR_2_SEC_3 VAV BOX REHEAT COIL DEMAND INLET NODE,ZN_1_FLR_2_SEC_3 VAV BOX REHEAT COIL DEMAND OUTLET NODE,Water Nodes
 Component Set,18,BRANCH,HEATSYS1 DEMAND LOAD BRANCH 9,COIL:HEATING:WATER,ZN_1_FLR_3_SEC_3 VAV BOX REHEAT COIL,ZN_1_FLR_3_SEC_3 VAV BOX REHEAT COIL DEMAND INLET NODE,ZN_1_FLR_3_SEC_3 VAV BOX REHEAT COIL DEMAND OUTLET NODE,Water Nodes
 Component Set,19,BRANCH,HEATSYS1 DEMAND LOAD BRANCH 10,COIL:HEATING:WATER,ZN_1_FLR_1_SEC_4 VAV BOX REHEAT COIL,ZN_1_FLR_1_SEC_4 VAV BOX REHEAT COIL DEMAND INLET NODE,ZN_1_FLR_1_SEC_4 VAV BOX REHEAT COIL DEMAND OUTLET NODE,Water Nodes
 Component Set,20,BRANCH,HEATSYS1 DEMAND LOAD BRANCH 11,COIL:HEATING:WATER,ZN_1_FLR_2_SEC_4 VAV BOX REHEAT COIL,ZN_1_FLR_2_SEC_4 VAV BOX REHEAT COIL DEMAND INLET NODE,ZN_1_FLR_2_SEC_4 VAV BOX REHEAT COIL DEMAND OUTLET NODE,Water Nodes
 Component Set,21,BRANCH,HEATSYS1 DEMAND LOAD BRANCH 12,COIL:HEATING:WATER,ZN_1_FLR_3_SEC_4 VAV BOX REHEAT COIL,ZN_1_FLR_3_SEC_4 VAV BOX REHEAT COIL DEMAND INLET NODE,ZN_1_FLR_3_SEC_4 VAV BOX REHEAT COIL DEMAND OUTLET NODE,Water Nodes
 Component Set,22,BRANCH,HEATSYS1 DEMAND LOAD BRANCH 13,COIL:HEATING:WATER,ZN_1_FLR_1_SEC_5 VAV BOX REHEAT COIL,ZN_1_FLR_1_SEC_5 VAV BOX REHEAT COIL DEMAND INLET NODE,ZN_1_FLR_1_SEC_5 VAV BOX REHEAT COIL DEMAND OUTLET NODE,Water Nodes
 Component Set,23,BRANCH,HEATSYS1 DEMAND LOAD BRANCH 14,COIL:HEATING:WATER,ZN_1_FLR_2_SEC_5 VAV BOX REHEAT COIL,ZN_1_FLR_2_SEC_5 VAV BOX REHEAT COIL DEMAND INLET NODE,ZN_1_FLR_2_SEC_5 VAV BOX REHEAT COIL DEMAND OUTLET NODE,Water Nodes
 Component Set,24,BRANCH,HEATSYS1 DEMAND LOAD BRANCH 15,COIL:HEATING:WATER,ZN_1_FLR_3_SEC_5 VAV BOX REHEAT COIL,ZN_1_FLR_3_SEC_5 VAV BOX REHEAT COIL DEMAND INLET NODE,ZN_1_FLR_3_SEC_5 VAV BOX REHEAT COIL DEMAND OUTLET NODE,Water Nodes
 Component Set,25,BRANCH,HEATSYS1 DEMAND LOAD BRANCH 16,COIL:HEATING:WATER,PVAV_REHEAT_1_HEATC 1,PVAV_REHEAT_1_HEATC 1 DEMAND INLET NODE,PVAV_REHEAT_1_HEATC 1 DEMAND OUTLET NODE,Water Nodes
 Component Set,26,BRANCH,HEATSYS1 DEMAND BYPASS BRANCH,PIPE:ADIABATIC,HEATSYS1 DEMAND BYPASS PIPE,HEATSYS1 DEMAND BYPASS PIPE INLET NODE,HEATSYS1 DEMAND BYPASS PIPE OUTLET NODE,Pipe Nodes
 Component Set,27,BRANCH,HEATSYS1 DEMAND OUTLET BRANCH,PIPE:ADIABATIC,HEATSYS1 DEMAND OUTLET PIPE,HEATSYS1 DEMAND MIXER-HEATSYS1 DEMAND OUTLET PIPE,HEATSYS1 DEMAND OUTLET NODE,Pipe Nodes
 Component Set,28,ZONEHVAC:AIRDISTRIBUTIONUNIT,ZN_1_FLR_1_SEC_1 VAV BOX,AIRTERMINAL:SINGLEDUCT:VAV:REHEAT,ZN_1_FLR_1_SEC_1 VAV BOX COMPONENT,ZN_1_FLR_1_SEC_1 VAV BOX INLET NODE NAME,ZN_1_FLR_1_SEC_1 VAV BOX OUTLET NODE NAME,Air Nodes
 Component Set,29,ZONEHVAC:AIRDISTRIBUTIONUNIT,ZN_1_FLR_2_SEC_1 VAV BOX,AIRTERMINAL:SINGLEDUCT:VAV:REHEAT,ZN_1_FLR_2_SEC_1 VAV BOX COMPONENT,ZN_1_FLR_2_SEC_1 VAV BOX INLET NODE NAME,ZN_1_FLR_2_SEC_1 VAV BOX OUTLET NODE NAME,Air Nodes
 Component Set,30,ZONEHVAC:AIRDISTRIBUTIONUNIT,ZN_1_FLR_3_SEC_1 VAV BOX,AIRTERMINAL:SINGLEDUCT:VAV:REHEAT,ZN_1_FLR_3_SEC_1 VAV BOX COMPONENT,ZN_1_FLR_3_SEC_1 VAV BOX INLET NODE NAME,ZN_1_FLR_3_SEC_1 VAV BOX OUTLET NODE NAME,Air Nodes
 Component Set,31,ZONEHVAC:AIRDISTRIBUTIONUNIT,ZN_1_FLR_1_SEC_2 VAV BOX,AIRTERMINAL:SINGLEDUCT:VAV:REHEAT,ZN_1_FLR_1_SEC_2 VAV BOX COMPONENT,ZN_1_FLR_1_SEC_2 VAV BOX INLET NODE NAME,ZN_1_FLR_1_SEC_2 VAV BOX OUTLET NODE NAME,Air Nodes
 Component Set,32,ZONEHVAC:AIRDISTRIBUTIONUNIT,ZN_1_FLR_2_SEC_2 VAV BOX,AIRTERMINAL:SINGLEDUCT:VAV:REHEAT,ZN_1_FLR_2_SEC_2 VAV BOX COMPONENT,ZN_1_FLR_2_SEC_2 VAV BOX INLET NODE NAME,ZN_1_FLR_2_SEC_2 VAV BOX OUTLET NODE NAME,Air Nodes
 Component Set,33,ZONEHVAC:AIRDISTRIBUTIONUNIT,ZN_1_FLR_3_SEC_2 VAV BOX,AIRTERMINAL:SINGLEDUCT:VAV:REHEAT,ZN_1_FLR_3_SEC_2 VAV BOX COMPONENT,ZN_1_FLR_3_SEC_2 VAV BOX INLET NODE NAME,ZN_1_FLR_3_SEC_2 VAV BOX OUTLET NODE NAME,Air Nodes
 Component Set,34,ZONEHVAC:AIRDISTRIBUTIONUNIT,ZN_1_FLR_1_SEC_3 VAV BOX,AIRTERMINAL:SINGLEDUCT:VAV:REHEAT,ZN_1_FLR_1_SEC_3 VAV BOX COMPONENT,ZN_1_FLR_1_SEC_3 VAV BOX INLET NODE NAME,ZN_1_FLR_1_SEC_3 VAV BOX OUTLET NODE NAME,Air Nodes
 Component Set,35,ZONEHVAC:AIRDISTRIBUTIONUNIT,ZN_1_FLR_2_SEC_3 VAV BOX,AIRTERMINAL:SINGLEDUCT:VAV:REHEAT,ZN_1_FLR_2_SEC_3 VAV BOX COMPONENT,ZN_1_FLR_2_SEC_3 VAV BOX INLET NODE NAME,ZN_1_FLR_2_SEC_3 VAV BOX OUTLET NODE NAME,Air Nodes
 Component Set,36,ZONEHVAC:AIRDISTRIBUTIONUNIT,ZN_1_FLR_3_SEC_3 VAV BOX,AIRTERMINAL:SINGLEDUCT:VAV:REHEAT,ZN_1_FLR_3_SEC_3 VAV BOX COMPONENT,ZN_1_FLR_3_SEC_3 VAV BOX INLET NODE NAME,ZN_1_FLR_3_SEC_3 VAV BOX OUTLET NODE NAME,Air Nodes
 Component Set,37,ZONEHVAC:AIRDISTRIBUTIONUNIT,ZN_1_FLR_1_SEC_4 VAV BOX,AIRTERMINAL:SINGLEDUCT:VAV:REHEAT,ZN_1_FLR_1_SEC_4 VAV BOX COMPONENT,ZN_1_FLR_1_SEC_4 VAV BOX INLET NODE NAME,ZN_1_FLR_1_SEC_4 VAV BOX OUTLET NODE NAME,Air Nodes
 Component Set,38,ZONEHVAC:AIRDISTRIBUTIONUNIT,ZN_1_FLR_2_SEC_4 VAV BOX,AIRTERMINAL:SINGLEDUCT:VAV:REHEAT,ZN_1_FLR_2_SEC_4 VAV BOX COMPONENT,ZN_1_FLR_2_SEC_4 VAV BOX INLET NODE NAME,ZN_1_FLR_2_SEC_4 VAV BOX OUTLET NODE NAME,Air Nodes
 Component Set,39,ZONEHVAC:AIRDISTRIBUTIONUNIT,ZN_1_FLR_3_SEC_4 VAV BOX,AIRTERMINAL:SINGLEDUCT:VAV:REHEAT,ZN_1_FLR_3_SEC_4 VAV BOX COMPONENT,ZN_1_FLR_3_SEC_4 VAV BOX INLET NODE NAME,ZN_1_FLR_3_SEC_4 VAV BOX OUTLET NODE NAME,Air Nodes
 Component Set,40,ZONEHVAC:AIRDISTRIBUTIONUNIT,ZN_1_FLR_1_SEC_5 VAV BOX,AIRTERMINAL:SINGLEDUCT:VAV:REHEAT,ZN_1_FLR_1_SEC_5 VAV BOX COMPONENT,ZN_1_FLR_1_SEC_5 VAV BOX INLET NODE NAME,ZN_1_FLR_1_SEC_5 VAV BOX OUTLET NODE NAME,Air Nodes
 Component Set,41,ZONEHVAC:AIRDISTRIBUTIONUNIT,ZN_1_FLR_2_SEC_5 VAV BOX,AIRTERMINAL:SINGLEDUCT:VAV:REHEAT,ZN_1_FLR_2_SEC_5 VAV BOX COMPONENT,ZN_1_FLR_2_SEC_5 VAV BOX INLET NODE NAME,ZN_1_FLR_2_SEC_5 VAV BOX OUTLET NODE NAME,Air Nodes
 Component Set,42,ZONEHVAC:AIRDISTRIBUTIONUNIT,ZN_1_FLR_3_SEC_5 VAV BOX,AIRTERMINAL:SINGLEDUCT:VAV:REHEAT,ZN_1_FLR_3_SEC_5 VAV BOX COMPONENT,ZN_1_FLR_3_SEC_5 VAV BOX INLET NODE NAME,ZN_1_FLR_3_SEC_5 VAV BOX OUTLET NODE NAME,Air Nodes
 Component Set,43,AIRTERMINAL:SINGLEDUCT:VAV:REHEAT,ZN_1_FLR_1_SEC_1 VAV BOX COMPONENT,COIL:HEATING:WATER,ZN_1_FLR_1_SEC_1 VAV BOX REHEAT COIL,ZN_1_FLR_1_SEC_1 VAV BOX DAMPER NODE,ZN_1_FLR_1_SEC_1 VAV BOX OUTLET NODE NAME,Air Nodes
 Component Set,44,AIRTERMINAL:SINGLEDUCT:VAV:REHEAT,ZN_1_FLR_2_SEC_1 VAV BOX COMPONENT,COIL:HEATING:WATER,ZN_1_FLR_2_SEC_1 VAV BOX REHEAT COIL,ZN_1_FLR_2_SEC_1 VAV BOX DAMPER NODE,ZN_1_FLR_2_SEC_1 VAV BOX OUTLET NODE NAME,Air Nodes
 Component Set,45,AIRTERMINAL:SINGLEDUCT:VAV:REHEAT,ZN_1_FLR_3_SEC_1 VAV BOX COMPONENT,COIL:HEATING:WATER,ZN_1_FLR_3_SEC_1 VAV BOX REHEAT COIL,ZN_1_FLR_3_SEC_1 VAV BOX DAMPER NODE,ZN_1_FLR_3_SEC_1 VAV BOX OUTLET NODE NAME,Air Nodes
 Component Set,46,AIRTERMINAL:SINGLEDUCT:VAV:REHEAT,ZN_1_FLR_1_SEC_2 VAV BOX COMPONENT,COIL:HEATING:WATER,ZN_1_FLR_1_SEC_2 VAV BOX REHEAT COIL,ZN_1_FLR_1_SEC_2 VAV BOX DAMPER NODE,ZN_1_FLR_1_SEC_2 VAV BOX OUTLET NODE NAME,Air Nodes
 Component Set,47,AIRTERMINAL:SINGLEDUCT:VAV:REHEAT,ZN_1_FLR_2_SEC_2 VAV BOX COMPONENT,COIL:HEATING:WATER,ZN_1_FLR_2_SEC_2 VAV BOX REHEAT COIL,ZN_1_FLR_2_SEC_2 VAV BOX DAMPER NODE,ZN_1_FLR_2_SEC_2 VAV BOX OUTLET NODE NAME,Air Nodes
 Component Set,48,AIRTERMINAL:SINGLEDUCT:VAV:REHEAT,ZN_1_FLR_3_SEC_2 VAV BOX COMPONENT,COIL:HEATING:WATER,ZN_1_FLR_3_SEC_2 VAV BOX REHEAT COIL,ZN_1_FLR_3_SEC_2 VAV BOX DAMPER NODE,ZN_1_FLR_3_SEC_2 VAV BOX OUTLET NODE NAME,Air Nodes
 Component Set,49,AIRTERMINAL:SINGLEDUCT:VAV:REHEAT,ZN_1_FLR_1_SEC_3 VAV BOX COMPONENT,COIL:HEATING:WATER,ZN_1_FLR_1_SEC_3 VAV BOX REHEAT COIL,ZN_1_FLR_1_SEC_3 VAV BOX DAMPER NODE,ZN_1_FLR_1_SEC_3 VAV BOX OUTLET NODE NAME,Air Nodes
 Component Set,50,AIRTERMINAL:SINGLEDUCT:VAV:REHEAT,ZN_1_FLR_2_SEC_3 VAV BOX COMPONENT,COIL:HEATING:WATER,ZN_1_FLR_2_SEC_3 VAV BOX REHEAT COIL,ZN_1_FLR_2_SEC_3 VAV BOX DAMPER NODE,ZN_1_FLR_2_SEC_3 VAV BOX OUTLET NODE NAME,Air Nodes
 Component Set,51,AIRTERMINAL:SINGLEDUCT:VAV:REHEAT,ZN_1_FLR_3_SEC_3 VAV BOX COMPONENT,COIL:HEATING:WATER,ZN_1_FLR_3_SEC_3 VAV BOX REHEAT COIL,ZN_1_FLR_3_SEC_3 VAV BOX DAMPER NODE,ZN_1_FLR_3_SEC_3 VAV BOX OUTLET NODE NAME,Air Nodes
 Component Set,52,AIRTERMINAL:SINGLEDUCT:VAV:REHEAT,ZN_1_FLR_1_SEC_4 VAV BOX COMPONENT,COIL:HEATING:WATER,ZN_1_FLR_1_SEC_4 VAV BOX REHEAT COIL,ZN_1_FLR_1_SEC_4 VAV BOX DAMPER NODE,ZN_1_FLR_1_SEC_4 VAV BOX OUTLET NODE NAME,Air Nodes
 Component Set,53,AIRTERMINAL:SINGLEDUCT:VAV:REHEAT,ZN_1_FLR_2_SEC_4 VAV BOX COMPONENT,COIL:HEATING:WATER,ZN_1_FLR_2_SEC_4 VAV BOX REHEAT COIL,ZN_1_FLR_2_SEC_4 VAV BOX DAMPER NODE,ZN_1_FLR_2_SEC_4 VAV BOX OUTLET NODE NAME,Air Nodes
 Component Set,54,AIRTERMINAL:SINGLEDUCT:VAV:REHEAT,ZN_1_FLR_3_SEC_4 VAV BOX COMPONENT,COIL:HEATING:WATER,ZN_1_FLR_3_SEC_4 VAV BOX REHEAT COIL,ZN_1_FLR_3_SEC_4 VAV BOX DAMPER NODE,ZN_1_FLR_3_SEC_4 VAV BOX OUTLET NODE NAME,Air Nodes
 Component Set,55,AIRTERMINAL:SINGLEDUCT:VAV:REHEAT,ZN_1_FLR_1_SEC_5 VAV BOX COMPONENT,COIL:HEATING:WATER,ZN_1_FLR_1_SEC_5 VAV BOX REHEAT COIL,ZN_1_FLR_1_SEC_5 VAV BOX DAMPER NODE,ZN_1_FLR_1_SEC_5 VAV BOX OUTLET NODE NAME,Air Nodes
 Component Set,56,AIRTERMINAL:SINGLEDUCT:VAV:REHEAT,ZN_1_FLR_2_SEC_5 VAV BOX COMPONENT,COIL:HEATING:WATER,ZN_1_FLR_2_SEC_5 VAV BOX REHEAT COIL,ZN_1_FLR_2_SEC_5 VAV BOX DAMPER NODE,ZN_1_FLR_2_SEC_5 VAV BOX OUTLET NODE NAME,Air Nodes
 Component Set,57,AIRTERMINAL:SINGLEDUCT:VAV:REHEAT,ZN_1_FLR_3_SEC_5 VAV BOX COMPONENT,COIL:HEATING:WATER,ZN_1_FLR_3_SEC_5 VAV BOX REHEAT COIL,ZN_1_FLR_3_SEC_5 VAV BOX DAMPER NODE,ZN_1_FLR_3_SEC_5 VAV BOX OUTLET NODE NAME,Air Nodes
 Component Set,58,AIRLOOPHVAC:OUTDOORAIRSYSTEM,PVAV_REHEAT_1_OA,OUTDOORAIR:MIXER,PVAV_REHEAT_1_OAMIXING BOX,PVAV_REHEAT_1_OAINLET NODE,PVAV_REHEAT_1_OA-PVAV_REHEAT_1_COOLC 1NODE,Air Nodes
 Component Set,59,COILSYSTEM:COOLING:DX,PVAV_REHEAT_1_COOLC 1,COIL:COOLING:DX:TWOSPEED,PVAV_REHEAT_1_COOLC 1 DXCOIL,PVAV_REHEAT_1_OA-PVAV_REHEAT_1_COOLC 1NODE,PVAV_REHEAT_1_COOLC 1-PVAV_REHEAT_1_HEATC 1NODE,Air Nodes
! ===============================================================
! <# Plant Loops>,<Number of Plant Loops>
 #Plant Loops,1
! <Plant Loop>,<Plant Loop Name>,<Loop Type>,<Inlet Node Name>,<Outlet Node Name>,<Branch List>,<Connector List>
! <Plant Loop Connector>,<Connector Type>,<Connector Name>,<Loop Name>,<Loop Type>,<Number of Inlets/Outlets>
! <Plant Loop Connector Branches>,<Connector Node Count>,<Connector Type>,<Connector Name>,<Inlet Branch>,<Outlet Branch>,<Loop Name>,<Loop Type>
! <Plant Loop Connector Nodes>,<Connector Node Count>,<Connector Type>,<Connector Name>,<Inlet Node>,<Outlet Node>,<Loop Name>,<Loop Type>
! <Plant Loop Supply Connection>,<Plant Loop Name>,<Supply Side Outlet Node Name>,<Demand Side Inlet Node Name>
! <Plant Loop Return Connection>,<Plant Loop Name>,<Demand Side Outlet Node Name>,<Supply Side Inlet Node Name>
 Plant Loop,HEATSYS1,Demand,HEATSYS1 DEMAND INLET NODE,HEATSYS1 DEMAND OUTLET NODE,HEATSYS1 DEMAND BRANCHES,HEATSYS1 DEMAND CONNECTORS
   Plant Loop Connector,Splitter,HEATSYS1 DEMAND SPLITTER,HEATSYS1,Demand,17
     Plant Loop Connector Branches,1,Splitter,HEATSYS1 DEMAND SPLITTER,HEATSYS1 DEMAND INLET BRANCH,HEATSYS1 DEMAND LOAD BRANCH 1,HEATSYS1,Demand
     Plant Loop Connector Nodes,   1,Splitter,HEATSYS1 DEMAND SPLITTER,HEATSYS1 DEMAND INLET PIPE-HEATSYS1 DEMAND MIXER,ZN_1_FLR_1_SEC_1 VAV BOX REHEAT COIL DEMAND INLET NODE,HEATSYS1,Demand
     Plant Loop Connector Branches,2,Splitter,HEATSYS1 DEMAND SPLITTER,HEATSYS1 DEMAND INLET BRANCH,HEATSYS1 DEMAND LOAD BRANCH 2,HEATSYS1,Demand
     Plant Loop Connector Nodes,   2,Splitter,HEATSYS1 DEMAND SPLITTER,HEATSYS1 DEMAND INLET PIPE-HEATSYS1 DEMAND MIXER,ZN_1_FLR_2_SEC_1 VAV BOX REHEAT COIL DEMAND INLET NODE,HEATSYS1,Demand
     Plant Loop Connector Branches,3,Splitter,HEATSYS1 DEMAND SPLITTER,HEATSYS1 DEMAND INLET BRANCH,HEATSYS1 DEMAND LOAD BRANCH 3,HEATSYS1,Demand
     Plant Loop Connector Nodes,   3,Splitter,HEATSYS1 DEMAND SPLITTER,HEATSYS1 DEMAND INLET PIPE-HEATSYS1 DEMAND MIXER,ZN_1_FLR_3_SEC_1 VAV BOX REHEAT COIL DEMAND INLET NODE,HEATSYS1,Demand
     Plant Loop Connector Branches,4,Splitter,HEATSYS1 DEMAND SPLITTER,HEATSYS1 DEMAND INLET BRANCH,HEATSYS1 DEMAND LOAD BRANCH 4,HEATSYS1,Demand
     Plant Loop Connector Nodes,   4,Splitter,HEATSYS1 DEMAND SPLITTER,HEATSYS1 DEMAND INLET PIPE-HEATSYS1 DEMAND MIXER,ZN_1_FLR_1_SEC_2 VAV BOX REHEAT COIL DEMAND INLET NODE,HEATSYS1,Demand
     Plant Loop Connector Branches,5,Splitter,HEATSYS1 DEMAND SPLITTER,HEATSYS1 DEMAND INLET BRANCH,HEATSYS1 DEMAND LOAD BRANCH 5,HEATSYS1,Demand
     Plant Loop Connector Nodes,   5,Splitter,HEATSYS1 DEMAND SPLITTER,HEATSYS1 DEMAND INLET PIPE-HEATSYS1 DEMAND MIXER,ZN_1_FLR_2_SEC_2 VAV BOX REHEAT COIL DEMAND INLET NODE,HEATSYS1,Demand
     Plant Loop Connector Branches,6,Splitter,HEATSYS1 DEMAND SPLITTER,HEATSYS1 DEMAND INLET BRANCH,HEATSYS1 DEMAND LOAD BRANCH 6,HEATSYS1,Demand
     Plant Loop Connector Nodes,   6,Splitter,HEATSYS1 DEMAND SPLITTER,HEATSYS1 DEMAND INLET PIPE-HEATSYS1 DEMAND MIXER,ZN_1_FLR_3_SEC_2 VAV BOX REHEAT COIL DEMAND INLET NODE,HEATSYS1,Demand
     Plant Loop Connector Branches,7,Splitter,HEATSYS1 DEMAND SPLITTER,HEATSYS1 DEMAND INLET BRANCH,HEATSYS1 DEMAND LOAD BRANCH 7,HEATSYS1,Demand
     Plant Loop Connector Nodes,   7,Splitter,HEATSYS1 DEMAND SPLITTER,HEATSYS1 DEMAND INLET PIPE-HEATSYS1 DEMAND MIXER,ZN_1_FLR_1_SEC_3 VAV BOX REHEAT COIL DEMAND INLET NODE,HEATSYS1,Demand
     Plant Loop Connector Branches,8,Splitter,HEATSYS1 DEMAND SPLITTER,HEATSYS1 DEMAND INLET BRANCH,HEATSYS1 DEMAND LOAD BRANCH 8,HEATSYS1,Demand
     Plant Loop Connector Nodes,   8,Splitter,HEATSYS1 DEMAND SPLITTER,HEATSYS1 DEMAND INLET PIPE-HEATSYS1 DEMAND MIXER,ZN_1_FLR_2_SEC_3 VAV BOX REHEAT COIL DEMAND INLET NODE,HEATSYS1,Demand
     Plant Loop Connector Branches,9,Splitter,HEATSYS1 DEMAND SPLITTER,HEATSYS1 DEMAND INLET BRANCH,HEATSYS1 DEMAND LOAD BRANCH 9,HEATSYS1,Demand
     Plant Loop Connector Nodes,   9,Splitter,HEATSYS1 DEMAND SPLITTER,HEATSYS1 DEMAND INLET PIPE-HEATSYS1 DEMAND MIXER,ZN_1_FLR_3_SEC_3 VAV BOX REHEAT COIL DEMAND INLET NODE,HEATSYS1,Demand
     Plant Loop Connector Branches,10,Splitter,HEATSYS1 DEMAND SPLITTER,HEATSYS1 DEMAND INLET BRANCH,HEATSYS1 DEMAND LOAD BRANCH 10,HEATSYS1,Demand
     Plant Loop Connector Nodes,   10,Splitter,HEATSYS1 DEMAND SPLITTER,HEATSYS1 DEMAND INLET PIPE-HEATSYS1 DEMAND MIXER,ZN_1_FLR_1_SEC_4 VAV BOX REHEAT COIL DEMAND INLET NODE,HEATSYS1,Demand
     Plant Loop Connector Branches,11,Splitter,HEATSYS1 DEMAND SPLITTER,HEATSYS1 DEMAND INLET BRANCH,HEATSYS1 DEMAND LOAD BRANCH 11,HEATSYS1,Demand
     Plant Loop Connector Nodes,   11,Splitter,HEATSYS1 DEMAND SPLITTER,HEATSYS1 DEMAND INLET PIPE-HEATSYS1 DEMAND MIXER,ZN_1_FLR_2_SEC_4 VAV BOX REHEAT COIL DEMAND INLET NODE,HEATSYS1,Demand
     Plant Loop Connector Branches,12,Splitter,HEATSYS1 DEMAND SPLITTER,HEATSYS1 DEMAND INLET BRANCH,HEATSYS1 DEMAND LOAD BRANCH 12,HEATSYS1,Demand
     Plant Loop Connector Nodes,   12,Splitter,HEATSYS1 DEMAND SPLITTER,HEATSYS1 DEMAND INLET PIPE-HEATSYS1 DEMAND MIXER,ZN_1_FLR_3_SEC_4 VAV BOX REHEAT COIL DEMAND INLET NODE,HEATSYS1,Demand
     Plant Loop Connector Branches,13,Splitter,HEATSYS1 DEMAND SPLITTER,HEATSYS1 DEMAND INLET BRANCH,HEATSYS1 DEMAND LOAD BRANCH 13,HEATSYS1,Demand
     Plant Loop Connector Nodes,   13,Splitter,HEATSYS1 DEMAND SPLITTER,HEATSYS1 DEMAND INLET PIPE-HEATSYS1 DEMAND MIXER,ZN_1_FLR_1_SEC_5 VAV BOX REHEAT COIL DEMAND INLET NODE,HEATSYS1,Demand
     Plant Loop Connector Branches,14,Splitter,HEATSYS1 DEMAND SPLITTER,HEATSYS1 DEMAND INLET BRANCH,HEATSYS1 DEMAND LOAD BRANCH 14,HEATSYS1,Demand
     Plant Loop Connector Nodes,   14,Splitter,HEATSYS1 DEMAND SPLITTER,HEATSYS1 DEMAND INLET PIPE-HEATSYS1 DEMAND MIXER,ZN_1_FLR_2_SEC_5 VAV BOX REHEAT COIL DEMAND INLET NODE,HEATSYS1,Demand
     Plant Loop Connector Branches,15,Splitter,HEATSYS1 DEMAND SPLITTER,HEATSYS1 DEMAND INLET BRANCH,HEATSYS1 DEMAND LOAD BRANCH 15,HEATSYS1,Demand
     Plant Loop Connector Nodes,   15,Splitter,HEATSYS1 DEMAND SPLITTER,HEATSYS1 DEMAND INLET PIPE-HEATSYS1 DEMAND MIXER,ZN_1_FLR_3_SEC_5 VAV BOX REHEAT COIL DEMAND INLET NODE,HEATSYS1,Demand
     Plant Loop Connector Branches,16,Splitter,HEATSYS1 DEMAND SPLITTER,HEATSYS1 DEMAND INLET BRANCH,HEATSYS1 DEMAND LOAD BRANCH 16,HEATSYS1,Demand
     Plant Loop Connector Nodes,   16,Splitter,HEATSYS1 DEMAND SPLITTER,HEATSYS1 DEMAND INLET PIPE-HEATSYS1 DEMAND MIXER,PVAV_REHEAT_1_HEATC 1 DEMAND INLET NODE,HEATSYS1,Demand
     Plant Loop Connector Branches,17,Splitter,HEATSYS1 DEMAND SPLITTER,HEATSYS1 DEMAND INLET BRANCH,HEATSYS1 DEMAND BYPASS BRANCH,HEATSYS1,Demand
     Plant Loop Connector Nodes,   17,Splitter,HEATSYS1 DEMAND SPLITTER,HEATSYS1 DEMAND INLET PIPE-HEATSYS1 DEMAND MIXER,HEATSYS1 DEMAND BYPASS PIPE INLET NODE,HEATSYS1,Demand
   Plant Loop Connector,Mixer,HEATSYS1 DEMAND MIXER,HEATSYS1,Demand,17
     Plant Loop Connector Branches,1,Mixer,HEATSYS1 DEMAND MIXER,HEATSYS1 DEMAND LOAD BRANCH 1,HEATSYS1 DEMAND OUTLET BRANCH,HEATSYS1,Demand
     Plant Loop Connector Nodes,   1,Mixer,HEATSYS1 DEMAND MIXER,ZN_1_FLR_1_SEC_1 VAV BOX REHEAT COIL DEMAND OUTLET NODE,HEATSYS1 DEMAND MIXER-HEATSYS1 DEMAND OUTLET PIPE,HEATSYS1,Demand
     Plant Loop Connector Branches,2,Mixer,HEATSYS1 DEMAND MIXER,HEATSYS1 DEMAND LOAD BRANCH 2,HEATSYS1 DEMAND OUTLET BRANCH,HEATSYS1,Demand
     Plant Loop Connector Nodes,   2,Mixer,HEATSYS1 DEMAND MIXER,ZN_1_FLR_2_SEC_1 VAV BOX REHEAT COIL DEMAND OUTLET NODE,HEATSYS1 DEMAND MIXER-HEATSYS1 DEMAND OUTLET PIPE,HEATSYS1,Demand
     Plant Loop Connector Branches,3,Mixer,HEATSYS1 DEMAND MIXER,HEATSYS1 DEMAND LOAD BRANCH 3,HEATSYS1 DEMAND OUTLET BRANCH,HEATSYS1,Demand
     Plant Loop Connector Nodes,   3,Mixer,HEATSYS1 DEMAND MIXER,ZN_1_FLR_3_SEC_1 VAV BOX REHEAT COIL DEMAND OUTLET NODE,HEATSYS1 DEMAND MIXER-HEATSYS1 DEMAND OUTLET PIPE,HEATSYS1,Demand
     Plant Loop Connector Branches,4,Mixer,HEATSYS1 DEMAND MIXER,HEATSYS1 DEMAND LOAD BRANCH 4,HEATSYS1 DEMAND OUTLET BRANCH,HEATSYS1,Demand
     Plant Loop Connector Nodes,   4,Mixer,HEATSYS1 DEMAND MIXER,ZN_1_FLR_1_SEC_2 VAV BOX REHEAT COIL DEMAND OUTLET NODE,HEATSYS1 DEMAND MIXER-HEATSYS1 DEMAND OUTLET PIPE,HEATSYS1,Demand
     Plant Loop Connector Branches,5,Mixer,HEATSYS1 DEMAND MIXER,HEATSYS1 DEMAND LOAD BRANCH 5,HEATSYS1 DEMAND OUTLET BRANCH,HEATSYS1,Demand
     Plant Loop Connector Nodes,   5,Mixer,HEATSYS1 DEMAND MIXER,ZN_1_FLR_2_SEC_2 VAV BOX REHEAT COIL DEMAND OUTLET NODE,HEATSYS1 DEMAND MIXER-HEATSYS1 DEMAND OUTLET PIPE,HEATSYS1,Demand
     Plant Loop Connector Branches,6,Mixer,HEATSYS1 DEMAND MIXER,HEATSYS1 DEMAND LOAD BRANCH 6,HEATSYS1 DEMAND OUTLET BRANCH,HEATSYS1,Demand
     Plant Loop Connector Nodes,   6,Mixer,HEATSYS1 DEMAND MIXER,ZN_1_FLR_3_SEC_2 VAV BOX REHEAT COIL DEMAND OUTLET NODE,HEATSYS1 DEMAND MIXER-HEATSYS1 DEMAND OUTLET PIPE,HEATSYS1,Demand
     Plant Loop Connector Branches,7,Mixer,HEATSYS1 DEMAND MIXER,HEATSYS1 DEMAND LOAD BRANCH 7,HEATSYS1 DEMAND OUTLET BRANCH,HEATSYS1,Demand
     Plant Loop Connector Nodes,   7,Mixer,HEATSYS1 DEMAND MIXER,ZN_1_FLR_1_SEC_3 VAV BOX REHEAT COIL DEMAND OUTLET NODE,HEATSYS1 DEMAND MIXER-HEATSYS1 DEMAND OUTLET PIPE,HEATSYS1,Demand
     Plant Loop Connector Branches,8,Mixer,HEATSYS1 DEMAND MIXER,HEATSYS1 DEMAND LOAD BRANCH 8,HEATSYS1 DEMAND OUTLET BRANCH,HEATSYS1,Demand
     Plant Loop Connector Nodes,   8,Mixer,HEATSYS1 DEMAND MIXER,ZN_1_FLR_2_SEC_3 VAV BOX REHEAT COIL DEMAND OUTLET NODE,HEATSYS1 DEMAND MIXER-HEATSYS1 DEMAND OUTLET PIPE,HEATSYS1,Demand
     Plant Loop Connector Branches,9,Mixer,HEATSYS1 DEMAND MIXER,HEATSYS1 DEMAND LOAD BRANCH 9,HEATSYS1 DEMAND OUTLET BRANCH,HEATSYS1,Demand
     Plant Loop Connector Nodes,   9,Mixer,HEATSYS1 DEMAND MIXER,ZN_1_FLR_3_SEC_3 VAV BOX REHEAT COIL DEMAND OUTLET NODE,HEATSYS1 DEMAND MIXER-HEATSYS1 DEMAND OUTLET PIPE,HEATSYS1,Demand
     Plant Loop Connector Branches,10,Mixer,HEATSYS1 DEMAND MIXER,HEATSYS1 DEMAND LOAD BRANCH 10,HEATSYS1 DEMAND OUTLET BRANCH,HEATSYS1,Demand
     Plant Loop Connector Nodes,   10,Mixer,HEATSYS1 DEMAND MIXER,ZN_1_FLR_1_SEC_4 VAV BOX REHEAT COIL DEMAND OUTLET NODE,HEATSYS1 DEMAND MIXER-HEATSYS1 DEMAND OUTLET PIPE,HEATSYS1,Demand
     Plant Loop Connector Branches,11,Mixer,HEATSYS1 DEMAND MIXER,HEATSYS1 DEMAND LOAD BRANCH 11,HEATSYS1 DEMAND OUTLET BRANCH,HEATSYS1,Demand
     Plant Loop Connector Nodes,   11,Mixer,HEATSYS1 DEMAND MIXER,ZN_1_FLR_2_SEC_4 VAV BOX REHEAT COIL DEMAND OUTLET NODE,HEATSYS1 DEMAND MIXER-HEATSYS1 DEMAND OUTLET PIPE,HEATSYS1,Demand
     Plant Loop Connector Branches,12,Mixer,HEATSYS1 DEMAND MIXER,HEATSYS1 DEMAND LOAD BRANCH 12,HEATSYS1 DEMAND OUTLET BRANCH,HEATSYS1,Demand
     Plant Loop Connector Nodes,   12,Mixer,HEATSYS1 DEMAND MIXER,ZN_1_FLR_3_SEC_4 VAV BOX REHEAT COIL DEMAND OUTLET NODE,HEATSYS1 DEMAND MIXER-HEATSYS1 DEMAND OUTLET PIPE,HEATSYS1,Demand
     Plant Loop Connector Branches,13,Mixer,HEATSYS1 DEMAND MIXER,HEATSYS1 DEMAND LOAD BRANCH 13,HEATSYS1 DEMAND OUTLET BRANCH,HEATSYS1,Demand
     Plant Loop Connector Nodes,   13,Mixer,HEATSYS1 DEMAND MIXER,ZN_1_FLR_1_SEC_5 VAV BOX REHEAT COIL DEMAND OUTLET NODE,HEATSYS1 DEMAND MIXER-HEATSYS1 DEMAND OUTLET PIPE,HEATSYS1,Demand
     Plant Loop Connector Branches,14,Mixer,HEATSYS1 DEMAND MIXER,HEATSYS1 DEMAND LOAD BRANCH 14,HEATSYS1 DEMAND OUTLET BRANCH,HEATSYS1,Demand
     Plant Loop Connector Nodes,   14,Mixer,HEATSYS1 DEMAND MIXER,ZN_1_FLR_2_SEC_5 VAV BOX REHEAT COIL DEMAND OUTLET NODE,HEATSYS1 DEMAND MIXER-HEATSYS1 DEMAND OUTLET PIPE,HEATSYS1,Demand
     Plant Loop Connector Branches,15,Mixer,HEATSYS1 DEMAND MIXER,HEATSYS1 DEMAND LOAD BRANCH 15,HEATSYS1 DEMAND OUTLET BRANCH,HEATSYS1,Demand
     Plant Loop Connector Nodes,   15,Mixer,HEATSYS1 DEMAND MIXER,ZN_1_FLR_3_SEC_5 VAV BOX REHEAT COIL DEMAND OUTLET NODE,HEATSYS1 DEMAND MIXER-HEATSYS1 DEMAND OUTLET PIPE,HEATSYS1,Demand
     Plant Loop Connector Branches,16,Mixer,HEATSYS1 DEMAND MIXER,HEATSYS1 DEMAND LOAD BRANCH 16,HEATSYS1 DEMAND OUTLET BRANCH,HEATSYS1,Demand
     Plant Loop Connector Nodes,   16,Mixer,HEATSYS1 DEMAND MIXER,PVAV_REHEAT_1_HEATC 1 DEMAND OUTLET NODE,HEATSYS1 DEMAND MIXER-HEATSYS1 DEMAND OUTLET PIPE,HEATSYS1,Demand
     Plant Loop Connector Branches,17,Mixer,HEATSYS1 DEMAND MIXER,HEATSYS1 DEMAND BYPASS BRANCH,HEATSYS1 DEMAND OUTLET BRANCH,HEATSYS1,Demand
     Plant Loop Connector Nodes,   17,Mixer,HEATSYS1 DEMAND MIXER,HEATSYS1 DEMAND BYPASS PIPE OUTLET NODE,HEATSYS1 DEMAND MIXER-HEATSYS1 DEMAND OUTLET PIPE,HEATSYS1,Demand
 Plant Loop,HEATSYS1,Supply,HEATSYS1 SUPPLY INLET NODE,HEATSYS1 SUPPLY OUTLET NODE,HEATSYS1 SUPPLY BRANCHES,HEATSYS1 SUPPLY CONNECTORS
   Plant Loop Connector,Splitter,HEATSYS1 SUPPLY SPLITTER,HEATSYS1,Supply,2
     Plant Loop Connector Branches,1,Splitter,HEATSYS1 SUPPLY SPLITTER,HEATSYS1 SUPPLY INLET BRANCH,HEATSYS1 SUPPLY EQUIPMENT BRANCH,HEATSYS1,Supply
     Plant Loop Connector Nodes,   1,Splitter,HEATSYS1 SUPPLY SPLITTER,HEATSYS1 PUMP-HEATSYS1 BOILERNODEVIACONNECTOR,HEATSYS1 PUMP-HEATSYS1 BOILERNODE,HEATSYS1,Supply
     Plant Loop Connector Branches,2,Splitter,HEATSYS1 SUPPLY SPLITTER,HEATSYS1 SUPPLY INLET BRANCH,HEATSYS1 SUPPLY EQUIPMENT BYPASS BRANCH,HEATSYS1,Supply
     Plant Loop Connector Nodes,   2,Splitter,HEATSYS1 SUPPLY SPLITTER,HEATSYS1 PUMP-HEATSYS1 BOILERNODEVIACONNECTOR,HEATSYS1 SUPPLY EQUIP BYPASS INLET NODE,HEATSYS1,Supply
   Plant Loop Connector,Mixer,HEATSYS1 SUPPLY MIXER,HEATSYS1,Supply,2
     Plant Loop Connector Branches,1,Mixer,HEATSYS1 SUPPLY MIXER,HEATSYS1 SUPPLY EQUIPMENT BRANCH,HEATSYS1 SUPPLY OUTLET BRANCH,HEATSYS1,Supply
     Plant Loop Connector Nodes,   1,Mixer,HEATSYS1 SUPPLY MIXER,HEATSYS1 SUPPLY EQUIPMENT OUTLET NODE,HEATSYS1 SUPPLY MIXER-HEATSYS1 SUPPLY OUTLET PIPE,HEATSYS1,Supply
     Plant Loop Connector Branches,2,Mixer,HEATSYS1 SUPPLY MIXER,HEATSYS1 SUPPLY EQUIPMENT BYPASS BRANCH,HEATSYS1 SUPPLY OUTLET BRANCH,HEATSYS1,Supply
     Plant Loop Connector Nodes,   2,Mixer,HEATSYS1 SUPPLY MIXER,HEATSYS1 SUPPLY EQUIP BYPASS OUTLET NODE,HEATSYS1 SUPPLY MIXER-HEATSYS1 SUPPLY OUTLET PIPE,HEATSYS1,Supply
 Plant Loop Supply Connection,HEATSYS1,HEATSYS1 SUPPLY OUTLET NODE,HEATSYS1 DEMAND INLET NODE
 Plant Loop Return Connection,HEATSYS1,HEATSYS1 DEMAND OUTLET NODE,HEATSYS1 SUPPLY INLET NODE
! ===============================================================
! <# Condenser Loops>,<Number of Condenser Loops>
 #Condenser Loops,0
! <Condenser Loop>,<Condenser Loop Name>,<Loop Type>,<Inlet Node Name>,<Outlet Node Name>,<Branch List>,<Connector List>
! <Condenser Loop Connector>,<Connector Type>,<Connector Name>,<Loop Name>,<Loop Type>,<Number of Inlets/Outlets>
! <Condenser Loop Connector Branches>,<Connector Node Count>,<Connector Type>,<Connector Name>,<Inlet Branch>,<Outlet Branch>,<Loop Name>,<Loop Type>
! <Condenser Loop Connector Nodes>,<Connector Node Count>,<Connector Type>,<Connector Name>,<Inlet Node>,<Outlet Node>,<Loop Name>,<Loop Type>
! <Condenser Loop Supply Connection>,<Condenser Loop Name>,<Supply Side Outlet Node Name>,<Demand Side Inlet Node Name>
! <Condenser Loop Return Connection>,<Condenser Loop Name>,<Demand Side Outlet Node Name>,<Supply Side Inlet Node Name>
! ===============================================================
! <# Controlled Zones>,<Number of Controlled Zones>
 #Controlled Zones,15
! <Controlled Zone>,<Controlled Zone Name>,<Equip List Name>,<Control List Name>,<Zone Node Name>,<Return Air Node Name>,<# Inlet Nodes>,<# Exhaust Nodes>
! <Controlled Zone Inlet>,<Inlet Node Count>,<Controlled Zone Name>,<Supply Air Inlet Node Name>,<SD Sys:Cooling/Heating [DD:Cooling] Inlet Node Name>,<DD Sys:Heating Inlet Node Name>
! <Controlled Zone Exhaust>,<Exhaust Node Count>,<Controlled Zone Name>,<Exhaust Air Node Name>
 Controlled Zone,ZN_1_FLR_1_SEC_1,ZN_1_FLR_1_SEC_1 EQUIPMENT,,ZN_1_FLR_1_SEC_1 AIR NODE,ZN_1_FLR_1_SEC_1 RETURN AIR NODE NAME,1,0
   Controlled Zone Inlet,1,ZN_1_FLR_1_SEC_1,ZN_1_FLR_1_SEC_1 VAV BOX OUTLET NODE NAME,ZN_1_FLR_1_SEC_1 VAV BOX INLET NODE NAME,N/A
 Controlled Zone,ZN_1_FLR_2_SEC_1,ZN_1_FLR_2_SEC_1 EQUIPMENT,,ZN_1_FLR_2_SEC_1 AIR NODE,ZN_1_FLR_2_SEC_1 RETURN AIR NODE NAME,1,0
   Controlled Zone Inlet,1,ZN_1_FLR_2_SEC_1,ZN_1_FLR_2_SEC_1 VAV BOX OUTLET NODE NAME,ZN_1_FLR_2_SEC_1 VAV BOX INLET NODE NAME,N/A
 Controlled Zone,ZN_1_FLR_3_SEC_1,ZN_1_FLR_3_SEC_1 EQUIPMENT,,ZN_1_FLR_3_SEC_1 AIR NODE,ZN_1_FLR_3_SEC_1 RETURN AIR NODE NAME,1,0
   Controlled Zone Inlet,1,ZN_1_FLR_3_SEC_1,ZN_1_FLR_3_SEC_1 VAV BOX OUTLET NODE NAME,ZN_1_FLR_3_SEC_1 VAV BOX INLET NODE NAME,N/A
 Controlled Zone,ZN_1_FLR_1_SEC_2,ZN_1_FLR_1_SEC_2 EQUIPMENT,,ZN_1_FLR_1_SEC_2 AIR NODE,ZN_1_FLR_1_SEC_2 RETURN AIR NODE NAME,1,0
   Controlled Zone Inlet,1,ZN_1_FLR_1_SEC_2,ZN_1_FLR_1_SEC_2 VAV BOX OUTLET NODE NAME,ZN_1_FLR_1_SEC_2 VAV BOX INLET NODE NAME,N/A
 Controlled Zone,ZN_1_FLR_2_SEC_2,ZN_1_FLR_2_SEC_2 EQUIPMENT,,ZN_1_FLR_2_SEC_2 AIR NODE,ZN_1_FLR_2_SEC_2 RETURN AIR NODE NAME,1,0
   Controlled Zone Inlet,1,ZN_1_FLR_2_SEC_2,ZN_1_FLR_2_SEC_2 VAV BOX OUTLET NODE NAME,ZN_1_FLR_2_SEC_2 VAV BOX INLET NODE NAME,N/A
 Controlled Zone,ZN_1_FLR_3_SEC_2,ZN_1_FLR_3_SEC_2 EQUIPMENT,,ZN_1_FLR_3_SEC_2 AIR NODE,ZN_1_FLR_3_SEC_2 RETURN AIR NODE NAME,1,0
   Controlled Zone Inlet,1,ZN_1_FLR_3_SEC_2,ZN_1_FLR_3_SEC_2 VAV BOX OUTLET NODE NAME,ZN_1_FLR_3_SEC_2 VAV BOX INLET NODE NAME,N/A
 Controlled Zone,ZN_1_FLR_1_SEC_3,ZN_1_FLR_1_SEC_3 EQUIPMENT,,ZN_1_FLR_1_SEC_3 AIR NODE,ZN_1_FLR_1_SEC_3 RETURN AIR NODE NAME,1,0
   Controlled Zone Inlet,1,ZN_1_FLR_1_SEC_3,ZN_1_FLR_1_SEC_3 VAV BOX OUTLET NODE NAME,ZN_1_FLR_1_SEC_3 VAV BOX INLET NODE NAME,N/A
 Controlled Zone,ZN_1_FLR_2_SEC_3,ZN_1_FLR_2_SEC_3 EQUIPMENT,,ZN_1_FLR_2_SEC_3 AIR NODE,ZN_1_FLR_2_SEC_3 RETURN AIR NODE NAME,1,0
   Controlled Zone Inlet,1,ZN_1_FLR_2_SEC_3,ZN_1_FLR_2_SEC_3 VAV BOX OUTLET NODE NAME,ZN_1_FLR_2_SEC_3 VAV BOX INLET NODE NAME,N/A
 Controlled Zone,ZN_1_FLR_3_SEC_3,ZN_1_FLR_3_SEC_3 EQUIPMENT,,ZN_1_FLR_3_SEC_3 AIR NODE,ZN_1_FLR_3_SEC_3 RETURN AIR NODE NAME,1,0
   Controlled Zone Inlet,1,ZN_1_FLR_3_SEC_3,ZN_1_FLR_3_SEC_3 VAV BOX OUTLET NODE NAME,ZN_1_FLR_3_SEC_3 VAV BOX INLET NODE NAME,N/A
 Controlled Zone,ZN_1_FLR_1_SEC_4,ZN_1_FLR_1_SEC_4 EQUIPMENT,,ZN_1_FLR_1_SEC_4 AIR NODE,ZN_1_FLR_1_SEC_4 RETURN AIR NODE NAME,1,0
   Controlled Zone Inlet,1,ZN_1_FLR_1_SEC_4,ZN_1_FLR_1_SEC_4 VAV BOX OUTLET NODE NAME,ZN_1_FLR_1_SEC_4 VAV BOX INLET NODE NAME,N/A
 Controlled Zone,ZN_1_FLR_2_SEC_4,ZN_1_FLR_2_SEC_4 EQUIPMENT,,ZN_1_FLR_2_SEC_4 AIR NODE,ZN_1_FLR_2_SEC_4 RETURN AIR NODE NAME,1,0
   Controlled Zone Inlet,1,ZN_1_FLR_2_SEC_4,ZN_1_FLR_2_SEC_4 VAV BOX OUTLET NODE NAME,ZN_1_FLR_2_SEC_4 VAV BOX INLET NODE NAME,N/A
 Controlled Zone,ZN_1_FLR_3_SEC_4,ZN_1_FLR_3_SEC_4 EQUIPMENT,,ZN_1_FLR_3_SEC_4 AIR NODE,ZN_1_FLR_3_SEC_4 RETURN AIR NODE NAME,1,0
   Controlled Zone Inlet,1,ZN_1_FLR_3_SEC_4,ZN_1_FLR_3_SEC_4 VAV BOX OUTLET NODE NAME,ZN_1_FLR_3_SEC_4 VAV BOX INLET NODE NAME,N/A
 Controlled Zone,ZN_1_FLR_1_SEC_5,ZN_1_FLR_1_SEC_5 EQUIPMENT,,ZN_1_FLR_1_SEC_5 AIR NODE,ZN_1_FLR_1_SEC_5 RETURN AIR NODE NAME,1,0
   Controlled Zone Inlet,1,ZN_1_FLR_1_SEC_5,ZN_1_FLR_1_SEC_5 VAV BOX OUTLET NODE NAME,ZN_1_FLR_1_SEC_5 VAV BOX INLET NODE NAME,N/A
 Controlled Zone,ZN_1_FLR_2_SEC_5,ZN_1_FLR_2_SEC_5 EQUIPMENT,,ZN_1_FLR_2_SEC_5 AIR NODE,ZN_1_FLR_2_SEC_5 RETURN AIR NODE NAME,1,0
   Controlled Zone Inlet,1,ZN_1_FLR_2_SEC_5,ZN_1_FLR_2_SEC_5 VAV BOX OUTLET NODE NAME,ZN_1_FLR_2_SEC_5 VAV BOX INLET NODE NAME,N/A
 Controlled Zone,ZN_1_FLR_3_SEC_5,ZN_1_FLR_3_SEC_5 EQUIPMENT,,ZN_1_FLR_3_SEC_5 AIR NODE,ZN_1_FLR_3_SEC_5 RETURN AIR NODE NAME,1,0
   Controlled Zone Inlet,1,ZN_1_FLR_3_SEC_5,ZN_1_FLR_3_SEC_5 VAV BOX OUTLET NODE NAME,ZN_1_FLR_3_SEC_5 VAV BOX INLET NODE NAME,N/A
! ===============================================================
! <#Zone Equipment Lists>,<Number of Zone Equipment Lists>
 #Zone Equipment Lists,15
! <Zone Equipment List>,<Zone Equipment List Count>,<Zone Equipment List Name>,<Zone Name>,<Number of Components>
! <Zone Equipment Component>,<Component Count>,<Component Type>,<Component Name>,<Zone Name>,<Heating Priority>,<Cooling Priority>
 Zone Equipment List,1,ZN_1_FLR_1_SEC_1 EQUIPMENT,ZN_1_FLR_1_SEC_1,1
   Zone Equipment Component,1,ZONEHVAC:AIRDISTRIBUTIONUNIT,ZN_1_FLR_1_SEC_1 VAV BOX,ZN_1_FLR_1_SEC_1,1,1
 Zone Equipment List,2,ZN_1_FLR_2_SEC_1 EQUIPMENT,ZN_1_FLR_2_SEC_1,1
   Zone Equipment Component,1,ZONEHVAC:AIRDISTRIBUTIONUNIT,ZN_1_FLR_2_SEC_1 VAV BOX,ZN_1_FLR_2_SEC_1,1,1
 Zone Equipment List,3,ZN_1_FLR_3_SEC_1 EQUIPMENT,ZN_1_FLR_3_SEC_1,1
   Zone Equipment Component,1,ZONEHVAC:AIRDISTRIBUTIONUNIT,ZN_1_FLR_3_SEC_1 VAV BOX,ZN_1_FLR_3_SEC_1,1,1
 Zone Equipment List,4,ZN_1_FLR_1_SEC_2 EQUIPMENT,ZN_1_FLR_1_SEC_2,1
   Zone Equipment Component,1,ZONEHVAC:AIRDISTRIBUTIONUNIT,ZN_1_FLR_1_SEC_2 VAV BOX,ZN_1_FLR_1_SEC_2,1,1
 Zone Equipment List,5,ZN_1_FLR_2_SEC_2 EQUIPMENT,ZN_1_FLR_2_SEC_2,1
   Zone Equipment Component,1,ZONEHVAC:AIRDISTRIBUTIONUNIT,ZN_1_FLR_2_SEC_2 VAV BOX,ZN_1_FLR_2_SEC_2,1,1
 Zone Equipment List,6,ZN_1_FLR_3_SEC_2 EQUIPMENT,ZN_1_FLR_3_SEC_2,1
   Zone Equipment Component,1,ZONEHVAC:AIRDISTRIBUTIONUNIT,ZN_1_FLR_3_SEC_2 VAV BOX,ZN_1_FLR_3_SEC_2,1,1
 Zone Equipment List,7,ZN_1_FLR_1_SEC_3 EQUIPMENT,ZN_1_FLR_1_SEC_3,1
   Zone Equipment Component,1,ZONEHVAC:AIRDISTRIBUTIONUNIT,ZN_1_FLR_1_SEC_3 VAV BOX,ZN_1_FLR_1_SEC_3,1,1
 Zone Equipment List,8,ZN_1_FLR_2_SEC_3 EQUIPMENT,ZN_1_FLR_2_SEC_3,1
   Zone Equipment Component,1,ZONEHVAC:AIRDISTRIBUTIONUNIT,ZN_1_FLR_2_SEC_3 VAV BOX,ZN_1_FLR_2_SEC_3,1,1
 Zone Equipment List,9,ZN_1_FLR_3_SEC_3 EQUIPMENT,ZN_1_FLR_3_SEC_3,1
   Zone Equipment Component,1,ZONEHVAC:AIRDISTRIBUTIONUNIT,ZN_1_FLR_3_SEC_3 VAV BOX,ZN_1_FLR_3_SEC_3,1,1
 Zone Equipment List,10,ZN_1_FLR_1_SEC_4 EQUIPMENT,ZN_1_FLR_1_SEC_4,1
   Zone Equipment Component,1,ZONEHVAC:AIRDISTRIBUTIONUNIT,ZN_1_FLR_1_SEC_4 VAV BOX,ZN_1_FLR_1_SEC_4,1,1
 Zone Equipment List,11,ZN_1_FLR_2_SEC_4 EQUIPMENT,ZN_1_FLR_2_SEC_4,1
   Zone Equipment Component,1,ZONEHVAC:AIRDISTRIBUTIONUNIT,ZN_1_FLR_2_SEC_4 VAV BOX,ZN_1_FLR_2_SEC_4,1,1
 Zone Equipment List,12,ZN_1_FLR_3_SEC_4 EQUIPMENT,ZN_1_FLR_3_SEC_4,1
   Zone Equipment Component,1,ZONEHVAC:AIRDISTRIBUTIONUNIT,ZN_1_FLR_3_SEC_4 VAV BOX,ZN_1_FLR_3_SEC_4,1,1
 Zone Equipment List,13,ZN_1_FLR_1_SEC_5 EQUIPMENT,ZN_1_FLR_1_SEC_5,1
   Zone Equipment Component,1,ZONEHVAC:AIRDISTRIBUTIONUNIT,ZN_1_FLR_1_SEC_5 VAV BOX,ZN_1_FLR_1_SEC_5,1,1
 Zone Equipment List,14,ZN_1_FLR_2_SEC_5 EQUIPMENT,ZN_1_FLR_2_SEC_5,1
   Zone Equipment Component,1,ZONEHVAC:AIRDISTRIBUTIONUNIT,ZN_1_FLR_2_SEC_5 VAV BOX,ZN_1_FLR_2_SEC_5,1,1
 Zone Equipment List,15,ZN_1_FLR_3_SEC_5 EQUIPMENT,ZN_1_FLR_3_SEC_5,1
   Zone Equipment Component,1,ZONEHVAC:AIRDISTRIBUTIONUNIT,ZN_1_FLR_3_SEC_5 VAV BOX,ZN_1_FLR_3_SEC_5,1,1
! ===============================================================
! <#Dual Duct Damper Connections>,<Number of Dual Duct Damper Connections>
 #Dual Duct Damper Connections,0
! <Dual Duct Damper>,<Dual Duct Damper Count>,<Dual Duct Damper Name>,<Inlet Node>,<Outlet Node>,<Inlet Node Type>,<AirLoopHVAC Name>
! ===============================================================
! <#AirLoopHVACs>,<Number of AirLoopHVACs>
 #AirLoopHVACs,1
! <AirLoopHVAC>,<Air Loop Name>,<# Return Nodes>,<# Supply Nodes>,<# Zones Cooled>,<# Zones Heated>,<Outdoor Air Used>
! <AirLoop Return Connections>,<Connection Count>,<AirLoopHVAC Name>,<Zn Eqp Return Node #>,<Zn Eqp Return Node Name>,<AirLoop Return Node #>,<Air Loop Return Node Name>
! <AirLoop Supply Connections>,<Connection Count>,<AirLoopHVAC Name>,<Zn Eqp Supply Node #>,<Zn Eqp Supply Node Name>,<AirLoop Supply Node #>,<Air Loop Supply Node Name>
! <Cooled Zone Info>,<Cooled Zone Count>,<Cooled Zone Name>,<Cooled Zone Inlet Node #>,<Cooled Zone Inlet Node Name>,<AirLoopHVAC Name>
! <Heated Zone Info>,<Heated Zone Count>,<Heated Zone Name>,<Heated Zone Inlet Node #>,<Heated Zone Inlet Node Name>,<AirLoopHVAC Name>
! <Outdoor Air Connections>,<OA Inlet Node #>,<OA Return Air Inlet Node Name>,<OA Outlet Node #>,<OA Mixed Air Outlet Node Name>,<AirLoopHVAC Name>
! <AirLoopHVAC Connector>,<Connector Type>,<Connector Name>,<Loop Name>,<Loop Type>,<Number of Inlets/Outlets>
! <AirLoopHVAC Connector Branches>,<Connector Node Count>,<Connector Type>,<Connector Name>,<Inlet Branch>,<Outlet Branch>,<Loop Name>,<Loop Type>
! <AirLoopHVAC Connector Nodes>,<Connector Node Count>,<Connector Type>,<Connector Name>,<Inlet Node>,<Outlet Node>,<Loop Name>,<Loop Type>
 AirLoopHVAC,PVAV_REHEAT_1,1,1,15,0,Yes
   AirLoop Return Connections,1,PVAV_REHEAT_1,100,PVAV_REHEAT_1 ZONE EQUIPMENT OUTLET NODE,17,PVAV_REHEAT_1 SUPPLY EQUIPMENT INLET NODE
   AirLoop Supply Connections,1,PVAV_REHEAT_1,99,PVAV_REHEAT_1 ZONE EQUIPMENT INLET NODE,21,PVAV_REHEAT_1 SUPPLY EQUIPMENT OUTLET NODE
   Cooled Zone Info,1,ZN_1_FLR_1_SEC_1,1,ZN_1_FLR_1_SEC_1 VAV BOX OUTLET NODE NAME,PVAV_REHEAT_1
   Cooled Zone Info,2,ZN_1_FLR_2_SEC_1,2,ZN_1_FLR_2_SEC_1 VAV BOX OUTLET NODE NAME,PVAV_REHEAT_1
   Cooled Zone Info,3,ZN_1_FLR_3_SEC_1,3,ZN_1_FLR_3_SEC_1 VAV BOX OUTLET NODE NAME,PVAV_REHEAT_1
   Cooled Zone Info,4,ZN_1_FLR_1_SEC_2,4,ZN_1_FLR_1_SEC_2 VAV BOX OUTLET NODE NAME,PVAV_REHEAT_1
   Cooled Zone Info,5,ZN_1_FLR_2_SEC_2,5,ZN_1_FLR_2_SEC_2 VAV BOX OUTLET NODE NAME,PVAV_REHEAT_1
   Cooled Zone Info,6,ZN_1_FLR_3_SEC_2,6,ZN_1_FLR_3_SEC_2 VAV BOX OUTLET NODE NAME,PVAV_REHEAT_1
   Cooled Zone Info,7,ZN_1_FLR_1_SEC_3,7,ZN_1_FLR_1_SEC_3 VAV BOX OUTLET NODE NAME,PVAV_REHEAT_1
   Cooled Zone Info,8,ZN_1_FLR_2_SEC_3,8,ZN_1_FLR_2_SEC_3 VAV BOX OUTLET NODE NAME,PVAV_REHEAT_1
   Cooled Zone Info,9,ZN_1_FLR_3_SEC_3,9,ZN_1_FLR_3_SEC_3 VAV BOX OUTLET NODE NAME,PVAV_REHEAT_1
   Cooled Zone Info,10,ZN_1_FLR_1_SEC_4,10,ZN_1_FLR_1_SEC_4 VAV BOX OUTLET NODE NAME,PVAV_REHEAT_1
   Cooled Zone Info,11,ZN_1_FLR_2_SEC_4,11,ZN_1_FLR_2_SEC_4 VAV BOX OUTLET NODE NAME,PVAV_REHEAT_1
   Cooled Zone Info,12,ZN_1_FLR_3_SEC_4,12,ZN_1_FLR_3_SEC_4 VAV BOX OUTLET NODE NAME,PVAV_REHEAT_1
   Cooled Zone Info,13,ZN_1_FLR_1_SEC_5,13,ZN_1_FLR_1_SEC_5 VAV BOX OUTLET NODE NAME,PVAV_REHEAT_1
   Cooled Zone Info,14,ZN_1_FLR_2_SEC_5,14,ZN_1_FLR_2_SEC_5 VAV BOX OUTLET NODE NAME,PVAV_REHEAT_1
   Cooled Zone Info,15,ZN_1_FLR_3_SEC_5,15,ZN_1_FLR_3_SEC_5 VAV BOX OUTLET NODE NAME,PVAV_REHEAT_1
   Outdoor Air Connections,17,PVAV_REHEAT_1 SUPPLY EQUIPMENT INLET NODE,18,PVAV_REHEAT_1_OA-PVAV_REHEAT_1_COOLC 1NODE,PVAV_REHEAT_1
! ===============================================================
! <#Parent Node Connections>,<Number of Parent Node Connections>
 #Parent Node Connections,95
! <Parent Node Connection>,<Node Name>,<Node ObjectType>,<Node ObjectName>,<Node ConnectionType>,<Node FluidStream>
 Parent Node Connection,PVAV_REHEAT_1 SUPPLY EQUIPMENT INLET NODE,BRANCH,PVAV_REHEAT_1 AIR LOOP MAIN BRANCH,Inlet,1
 Parent Node Connection,PVAV_REHEAT_1_OA-PVAV_REHEAT_1_COOLC 1NODE,BRANCH,PVAV_REHEAT_1 AIR LOOP MAIN BRANCH,Internal,1
 Parent Node Connection,PVAV_REHEAT_1_COOLC 1-PVAV_REHEAT_1_HEATC 1NODE,BRANCH,PVAV_REHEAT_1 AIR LOOP MAIN BRANCH,Internal,1
 Parent Node Connection,PVAV_REHEAT_1_HEATC 1-PVAV_REHEAT_1_FANNODE,BRANCH,PVAV_REHEAT_1 AIR LOOP MAIN BRANCH,Internal,1
 Parent Node Connection,PVAV_REHEAT_1 SUPPLY EQUIPMENT OUTLET NODE,BRANCH,PVAV_REHEAT_1 AIR LOOP MAIN BRANCH,Outlet,1
 Parent Node Connection,HEATSYS1 SUPPLY INLET NODE,BRANCH,HEATSYS1 SUPPLY INLET BRANCH,Inlet,1
 Parent Node Connection,HEATSYS1 PUMP-HEATSYS1 BOILERNODEVIACONNECTOR,BRANCH,HEATSYS1 SUPPLY INLET BRANCH,Outlet,1
 Parent Node Connection,HEATSYS1 PUMP-HEATSYS1 BOILERNODE,BRANCH,HEATSYS1 SUPPLY EQUIPMENT BRANCH,Inlet,1
 Parent Node Connection,HEATSYS1 SUPPLY EQUIPMENT OUTLET NODE,BRANCH,HEATSYS1 SUPPLY EQUIPMENT BRANCH,Outlet,1
 Parent Node Connection,HEATSYS1 SUPPLY EQUIP BYPASS INLET NODE,BRANCH,HEATSYS1 SUPPLY EQUIPMENT BYPASS BRANCH,Inlet,1
 Parent Node Connection,HEATSYS1 SUPPLY EQUIP BYPASS OUTLET NODE,BRANCH,HEATSYS1 SUPPLY EQUIPMENT BYPASS BRANCH,Outlet,1
 Parent Node Connection,HEATSYS1 SUPPLY MIXER-HEATSYS1 SUPPLY OUTLET PIPE,BRANCH,HEATSYS1 SUPPLY OUTLET BRANCH,Inlet,1
 Parent Node Connection,HEATSYS1 SUPPLY OUTLET NODE,BRANCH,HEATSYS1 SUPPLY OUTLET BRANCH,Outlet,1
 Parent Node Connection,HEATSYS1 DEMAND INLET NODE,BRANCH,HEATSYS1 DEMAND INLET BRANCH,Inlet,1
 Parent Node Connection,HEATSYS1 DEMAND INLET PIPE-HEATSYS1 DEMAND MIXER,BRANCH,HEATSYS1 DEMAND INLET BRANCH,Outlet,1
 Parent Node Connection,ZN_1_FLR_1_SEC_1 VAV BOX REHEAT COIL DEMAND INLET NODE,BRANCH,HEATSYS1 DEMAND LOAD BRANCH 1,Inlet,1
 Parent Node Connection,ZN_1_FLR_1_SEC_1 VAV BOX REHEAT COIL DEMAND OUTLET NODE,BRANCH,HEATSYS1 DEMAND LOAD BRANCH 1,Outlet,1
 Parent Node Connection,ZN_1_FLR_2_SEC_1 VAV BOX REHEAT COIL DEMAND INLET NODE,BRANCH,HEATSYS1 DEMAND LOAD BRANCH 2,Inlet,1
 Parent Node Connection,ZN_1_FLR_2_SEC_1 VAV BOX REHEAT COIL DEMAND OUTLET NODE,BRANCH,HEATSYS1 DEMAND LOAD BRANCH 2,Outlet,1
 Parent Node Connection,ZN_1_FLR_3_SEC_1 VAV BOX REHEAT COIL DEMAND INLET NODE,BRANCH,HEATSYS1 DEMAND LOAD BRANCH 3,Inlet,1
 Parent Node Connection,ZN_1_FLR_3_SEC_1 VAV BOX REHEAT COIL DEMAND OUTLET NODE,BRANCH,HEATSYS1 DEMAND LOAD BRANCH 3,Outlet,1
 Parent Node Connection,ZN_1_FLR_1_SEC_2 VAV BOX REHEAT COIL DEMAND INLET NODE,BRANCH,HEATSYS1 DEMAND LOAD BRANCH 4,Inlet,1
 Parent Node Connection,ZN_1_FLR_1_SEC_2 VAV BOX REHEAT COIL DEMAND OUTLET NODE,BRANCH,HEATSYS1 DEMAND LOAD BRANCH 4,Outlet,1
 Parent Node Connection,ZN_1_FLR_2_SEC_2 VAV BOX REHEAT COIL DEMAND INLET NODE,BRANCH,HEATSYS1 DEMAND LOAD BRANCH 5,Inlet,1
 Parent Node Connection,ZN_1_FLR_2_SEC_2 VAV BOX REHEAT COIL DEMAND OUTLET NODE,BRANCH,HEATSYS1 DEMAND LOAD BRANCH 5,Outlet,1
 Parent Node Connection,ZN_1_FLR_3_SEC_2 VAV BOX REHEAT COIL DEMAND INLET NODE,BRANCH,HEATSYS1 DEMAND LOAD BRANCH 6,Inlet,1
 Parent Node Connection,ZN_1_FLR_3_SEC_2 VAV BOX REHEAT COIL DEMAND OUTLET NODE,BRANCH,HEATSYS1 DEMAND LOAD BRANCH 6,Outlet,1
 Parent Node Connection,ZN_1_FLR_1_SEC_3 VAV BOX REHEAT COIL DEMAND INLET NODE,BRANCH,HEATSYS1 DEMAND LOAD BRANCH 7,Inlet,1
 Parent Node Connection,ZN_1_FLR_1_SEC_3 VAV BOX REHEAT COIL DEMAND OUTLET NODE,BRANCH,HEATSYS1 DEMAND LOAD BRANCH 7,Outlet,1
 Parent Node Connection,ZN_1_FLR_2_SEC_3 VAV BOX REHEAT COIL DEMAND INLET NODE,BRANCH,HEATSYS1 DEMAND LOAD BRANCH 8,Inlet,1
 Parent Node Connection,ZN_1_FLR_2_SEC_3 VAV BOX REHEAT COIL DEMAND OUTLET NODE,BRANCH,HEATSYS1 DEMAND LOAD BRANCH 8,Outlet,1
 Parent Node Connection,ZN_1_FLR_3_SEC_3 VAV BOX REHEAT COIL DEMAND INLET NODE,BRANCH,HEATSYS1 DEMAND LOAD BRANCH 9,Inlet,1
 Parent Node Connection,ZN_1_FLR_3_SEC_3 VAV BOX REHEAT COIL DEMAND OUTLET NODE,BRANCH,HEATSYS1 DEMAND LOAD BRANCH 9,Outlet,1
 Parent Node Connection,ZN_1_FLR_1_SEC_4 VAV BOX REHEAT COIL DEMAND INLET NODE,BRANCH,HEATSYS1 DEMAND LOAD BRANCH 10,Inlet,1
 Parent Node Connection,ZN_1_FLR_1_SEC_4 VAV BOX REHEAT COIL DEMAND OUTLET NODE,BRANCH,HEATSYS1 DEMAND LOAD BRANCH 10,Outlet,1
 Parent Node Connection,ZN_1_FLR_2_SEC_4 VAV BOX REHEAT COIL DEMAND INLET NODE,BRANCH,HEATSYS1 DEMAND LOAD BRANCH 11,Inlet,1
 Parent Node Connection,ZN_1_FLR_2_SEC_4 VAV BOX REHEAT COIL DEMAND OUTLET NODE,BRANCH,HEATSYS1 DEMAND LOAD BRANCH 11,Outlet,1
 Parent Node Connection,ZN_1_FLR_3_SEC_4 VAV BOX REHEAT COIL DEMAND INLET NODE,BRANCH,HEATSYS1 DEMAND LOAD BRANCH 12,Inlet,1
 Parent Node Connection,ZN_1_FLR_3_SEC_4 VAV BOX REHEAT COIL DEMAND OUTLET NODE,BRANCH,HEATSYS1 DEMAND LOAD BRANCH 12,Outlet,1
 Parent Node Connection,ZN_1_FLR_1_SEC_5 VAV BOX REHEAT COIL DEMAND INLET NODE,BRANCH,HEATSYS1 DEMAND LOAD BRANCH 13,Inlet,1
 Parent Node Connection,ZN_1_FLR_1_SEC_5 VAV BOX REHEAT COIL DEMAND OUTLET NODE,BRANCH,HEATSYS1 DEMAND LOAD BRANCH 13,Outlet,1
 Parent Node Connection,ZN_1_FLR_2_SEC_5 VAV BOX REHEAT COIL DEMAND INLET NODE,BRANCH,HEATSYS1 DEMAND LOAD BRANCH 14,Inlet,1
 Parent Node Connection,ZN_1_FLR_2_SEC_5 VAV BOX REHEAT COIL DEMAND OUTLET NODE,BRANCH,HEATSYS1 DEMAND LOAD BRANCH 14,Outlet,1
 Parent Node Connection,ZN_1_FLR_3_SEC_5 VAV BOX REHEAT COIL DEMAND INLET NODE,BRANCH,HEATSYS1 DEMAND LOAD BRANCH 15,Inlet,1
 Parent Node Connection,ZN_1_FLR_3_SEC_5 VAV BOX REHEAT COIL DEMAND OUTLET NODE,BRANCH,HEATSYS1 DEMAND LOAD BRANCH 15,Outlet,1
 Parent Node Connection,PVAV_REHEAT_1_HEATC 1 DEMAND INLET NODE,BRANCH,HEATSYS1 DEMAND LOAD BRANCH 16,Inlet,1
 Parent Node Connection,PVAV_REHEAT_1_HEATC 1 DEMAND OUTLET NODE,BRANCH,HEATSYS1 DEMAND LOAD BRANCH 16,Outlet,1
 Parent Node Connection,HEATSYS1 DEMAND BYPASS PIPE INLET NODE,BRANCH,HEATSYS1 DEMAND BYPASS BRANCH,Inlet,1
 Parent Node Connection,HEATSYS1 DEMAND BYPASS PIPE OUTLET NODE,BRANCH,HEATSYS1 DEMAND BYPASS BRANCH,Outlet,1
 Parent Node Connection,HEATSYS1 DEMAND MIXER-HEATSYS1 DEMAND OUTLET PIPE,BRANCH,HEATSYS1 DEMAND OUTLET BRANCH,Inlet,1
 Parent Node Connection,HEATSYS1 DEMAND OUTLET NODE,BRANCH,HEATSYS1 DEMAND OUTLET BRANCH,Outlet,1
 Parent Node Connection,HEATSYS1 SUPPLY INLET NODE,PLANTLOOP,HEATSYS1,Inlet,1
 Parent Node Connection,HEATSYS1 SUPPLY OUTLET NODE,PLANTLOOP,HEATSYS1,Outlet,1
 Parent Node Connection,HEATSYS1 DEMAND INLET NODE,PLANTLOOP,HEATSYS1,Inlet,1
 Parent Node Connection,HEATSYS1 DEMAND OUTLET NODE,PLANTLOOP,HEATSYS1,Outlet,1
 Parent Node Connection,HEATSYS1 SUPPLY OUTLET NODE,PLANTLOOP,HEATSYS1,Sensor,1
 Parent Node Connection,PVAV_REHEAT_1 ZONE EQUIPMENT INLET NODE,AIRLOOPHVAC:SUPPLYPATH,PVAV_REHEAT_1 SUPPLY PATH,Inlet,1
 Parent Node Connection,PVAV_REHEAT_1 ZONE EQUIPMENT OUTLET NODE,AIRLOOPHVAC:RETURNPATH,PVAV_REHEAT_1 RETURN AIR PATH,Outlet,1
 Parent Node Connection,ZN_1_FLR_1_SEC_1 VAV BOX OUTLET NODE NAME,ZONEHVAC:AIRDISTRIBUTIONUNIT,ZN_1_FLR_1_SEC_1 VAV BOX,Outlet,1
 Parent Node Connection,ZN_1_FLR_2_SEC_1 VAV BOX OUTLET NODE NAME,ZONEHVAC:AIRDISTRIBUTIONUNIT,ZN_1_FLR_2_SEC_1 VAV BOX,Outlet,1
 Parent Node Connection,ZN_1_FLR_3_SEC_1 VAV BOX OUTLET NODE NAME,ZONEHVAC:AIRDISTRIBUTIONUNIT,ZN_1_FLR_3_SEC_1 VAV BOX,Outlet,1
 Parent Node Connection,ZN_1_FLR_1_SEC_2 VAV BOX OUTLET NODE NAME,ZONEHVAC:AIRDISTRIBUTIONUNIT,ZN_1_FLR_1_SEC_2 VAV BOX,Outlet,1
 Parent Node Connection,ZN_1_FLR_2_SEC_2 VAV BOX OUTLET NODE NAME,ZONEHVAC:AIRDISTRIBUTIONUNIT,ZN_1_FLR_2_SEC_2 VAV BOX,Outlet,1
 Parent Node Connection,ZN_1_FLR_3_SEC_2 VAV BOX OUTLET NODE NAME,ZONEHVAC:AIRDISTRIBUTIONUNIT,ZN_1_FLR_3_SEC_2 VAV BOX,Outlet,1
 Parent Node Connection,ZN_1_FLR_1_SEC_3 VAV BOX OUTLET NODE NAME,ZONEHVAC:AIRDISTRIBUTIONUNIT,ZN_1_FLR_1_SEC_3 VAV BOX,Outlet,1
 Parent Node Connection,ZN_1_FLR_2_SEC_3 VAV BOX OUTLET NODE NAME,ZONEHVAC:AIRDISTRIBUTIONUNIT,ZN_1_FLR_2_SEC_3 VAV BOX,Outlet,1
 Parent Node Connection,ZN_1_FLR_3_SEC_3 VAV BOX OUTLET NODE NAME,ZONEHVAC:AIRDISTRIBUTIONUNIT,ZN_1_FLR_3_SEC_3 VAV BOX,Outlet,1
 Parent Node Connection,ZN_1_FLR_1_SEC_4 VAV BOX OUTLET NODE NAME,ZONEHVAC:AIRDISTRIBUTIONUNIT,ZN_1_FLR_1_SEC_4 VAV BOX,Outlet,1
 Parent Node Connection,ZN_1_FLR_2_SEC_4 VAV BOX OUTLET NODE NAME,ZONEHVAC:AIRDISTRIBUTIONUNIT,ZN_1_FLR_2_SEC_4 VAV BOX,Outlet,1
 Parent Node Connection,ZN_1_FLR_3_SEC_4 VAV BOX OUTLET NODE NAME,ZONEHVAC:AIRDISTRIBUTIONUNIT,ZN_1_FLR_3_SEC_4 VAV BOX,Outlet,1
 Parent Node Connection,ZN_1_FLR_1_SEC_5 VAV BOX OUTLET NODE NAME,ZONEHVAC:AIRDISTRIBUTIONUNIT,ZN_1_FLR_1_SEC_5 VAV BOX,Outlet,1
 Parent Node Connection,ZN_1_FLR_2_SEC_5 VAV BOX OUTLET NODE NAME,ZONEHVAC:AIRDISTRIBUTIONUNIT,ZN_1_FLR_2_SEC_5 VAV BOX,Outlet,1
 Parent Node Connection,ZN_1_FLR_3_SEC_5 VAV BOX OUTLET NODE NAME,ZONEHVAC:AIRDISTRIBUTIONUNIT,ZN_1_FLR_3_SEC_5 VAV BOX,Outlet,1
 Parent Node Connection,ZN_1_FLR_1_SEC_1 VAV BOX OUTLET NODE NAME,AIRTERMINAL:SINGLEDUCT:VAV:REHEAT,ZN_1_FLR_1_SEC_1 VAV BOX COMPONENT,Outlet,1
 Parent Node Connection,ZN_1_FLR_2_SEC_1 VAV BOX OUTLET NODE NAME,AIRTERMINAL:SINGLEDUCT:VAV:REHEAT,ZN_1_FLR_2_SEC_1 VAV BOX COMPONENT,Outlet,1
 Parent Node Connection,ZN_1_FLR_3_SEC_1 VAV BOX OUTLET NODE NAME,AIRTERMINAL:SINGLEDUCT:VAV:REHEAT,ZN_1_FLR_3_SEC_1 VAV BOX COMPONENT,Outlet,1
 Parent Node Connection,ZN_1_FLR_1_SEC_2 VAV BOX OUTLET NODE NAME,AIRTERMINAL:SINGLEDUCT:VAV:REHEAT,ZN_1_FLR_1_SEC_2 VAV BOX COMPONENT,Outlet,1
 Parent Node Connection,ZN_1_FLR_2_SEC_2 VAV BOX OUTLET NODE NAME,AIRTERMINAL:SINGLEDUCT:VAV:REHEAT,ZN_1_FLR_2_SEC_2 VAV BOX COMPONENT,Outlet,1
 Parent Node Connection,ZN_1_FLR_3_SEC_2 VAV BOX OUTLET NODE NAME,AIRTERMINAL:SINGLEDUCT:VAV:REHEAT,ZN_1_FLR_3_SEC_2 VAV BOX COMPONENT,Outlet,1
 Parent Node Connection,ZN_1_FLR_1_SEC_3 VAV BOX OUTLET NODE NAME,AIRTERMINAL:SINGLEDUCT:VAV:REHEAT,ZN_1_FLR_1_SEC_3 VAV BOX COMPONENT,Outlet,1
 Parent Node Connection,ZN_1_FLR_2_SEC_3 VAV BOX OUTLET NODE NAME,AIRTERMINAL:SINGLEDUCT:VAV:REHEAT,ZN_1_FLR_2_SEC_3 VAV BOX COMPONENT,Outlet,1
 Parent Node Connection,ZN_1_FLR_3_SEC_3 VAV BOX OUTLET NODE NAME,AIRTERMINAL:SINGLEDUCT:VAV:REHEAT,ZN_1_FLR_3_SEC_3 VAV BOX COMPONENT,Outlet,1
 Parent Node Connection,ZN_1_FLR_1_SEC_4 VAV BOX OUTLET NODE NAME,AIRTERMINAL:SINGLEDUCT:VAV:REHEAT,ZN_1_FLR_1_SEC_4 VAV BOX COMPONENT,Outlet,1
 Parent Node Connection,ZN_1_FLR_2_SEC_4 VAV BOX OUTLET NODE NAME,AIRTERMINAL:SINGLEDUCT:VAV:REHEAT,ZN_1_FLR_2_SEC_4 VAV BOX COMPONENT,Outlet,1
 Parent Node Connection,ZN_1_FLR_3_SEC_4 VAV BOX OUTLET NODE NAME,AIRTERMINAL:SINGLEDUCT:VAV:REHEAT,ZN_1_FLR_3_SEC_4 VAV BOX COMPONENT,Outlet,1
 Parent Node Connection,ZN_1_FLR_1_SEC_5 VAV BOX OUTLET NODE NAME,AIRTERMINAL:SINGLEDUCT:VAV:REHEAT,ZN_1_FLR_1_SEC_5 VAV BOX COMPONENT,Outlet,1
 Parent Node Connection,ZN_1_FLR_2_SEC_5 VAV BOX OUTLET NODE NAME,AIRTERMINAL:SINGLEDUCT:VAV:REHEAT,ZN_1_FLR_2_SEC_5 VAV BOX COMPONENT,Outlet,1
 Parent Node Connection,ZN_1_FLR_3_SEC_5 VAV BOX OUTLET NODE NAME,AIRTERMINAL:SINGLEDUCT:VAV:REHEAT,ZN_1_FLR_3_SEC_5 VAV BOX COMPONENT,Outlet,1
 Parent Node Connection,PVAV_REHEAT_1 SUPPLY EQUIPMENT INLET NODE,AIRLOOPHVAC,PVAV_REHEAT_1,Inlet,1
 Parent Node Connection,PVAV_REHEAT_1 ZONE EQUIPMENT OUTLET NODE,AIRLOOPHVAC,PVAV_REHEAT_1,Outlet,1
 Parent Node Connection,PVAV_REHEAT_1 ZONE EQUIPMENT INLET NODE,AIRLOOPHVAC,PVAV_REHEAT_1,Inlet,1
 Parent Node Connection,PVAV_REHEAT_1 SUPPLY EQUIPMENT OUTLET NODE,AIRLOOPHVAC,PVAV_REHEAT_1,Outlet,1
 Parent Node Connection,PVAV_REHEAT_1_OA-PVAV_REHEAT_1_COOLC 1NODE,COILSYSTEM:COOLING:DX,PVAV_REHEAT_1_COOLC 1,Inlet,1
 Parent Node Connection,PVAV_REHEAT_1_COOLC 1-PVAV_REHEAT_1_HEATC 1NODE,COILSYSTEM:COOLING:DX,PVAV_REHEAT_1_COOLC 1,Outlet,1
 Parent Node Connection,PVAV_REHEAT_1_COOLC 1-PVAV_REHEAT_1_HEATC 1NODE,COILSYSTEM:COOLING:DX,PVAV_REHEAT_1_COOLC 1,Sensor,1
! ===============================================================
! <#Non-Parent Node Connections>,<Number of Non-Parent Node Connections>
 #Non-Parent Node Connections,255
! <Non-Parent Node Connection>,<Node Name>,<Node ObjectType>,<Node ObjectName>,<Node ConnectionType>,<Node FluidStream>
 Non-Parent Node Connection,PVAV_REHEAT_1_OAINLET NODE,OUTDOORAIR:NODELIST,OutdoorAir:NodeList,OutdoorAir,1
 Non-Parent Node Connection,PVAV_REHEAT_1_COOLC 1_CONDAIRINLETNODE,OUTDOORAIR:NODE,OutdoorAir:Node,OutdoorAir,2
 Non-Parent Node Connection,PVAV_REHEAT_1 SUPPLY EQUIPMENT OUTLET NODE,SETPOINTMANAGER:SCHEDULED,PVAV_REHEAT_1 SAT SETPOINT,Setpoint,1
 Non-Parent Node Connection,HEATSYS1 SUPPLY OUTLET NODE,SETPOINTMANAGER:SCHEDULED,HEATSYS1 LOOP SETPOINT MANAGER,Setpoint,1
 Non-Parent Node Connection,PVAV_REHEAT_1 SUPPLY EQUIPMENT OUTLET NODE,SETPOINTMANAGER:MIXEDAIR,PVAV_REHEAT_1_COOLC 1 SAT MANAGER,Sensor,1
 Non-Parent Node Connection,PVAV_REHEAT_1_HEATC 1-PVAV_REHEAT_1_FANNODE,SETPOINTMANAGER:MIXEDAIR,PVAV_REHEAT_1_COOLC 1 SAT MANAGER,Sensor,1
 Non-Parent Node Connection,PVAV_REHEAT_1_COOLC 1-PVAV_REHEAT_1_HEATC 1NODE,SETPOINTMANAGER:MIXEDAIR,PVAV_REHEAT_1_COOLC 1 SAT MANAGER,Setpoint,1
 Non-Parent Node Connection,PVAV_REHEAT_1 SUPPLY EQUIPMENT OUTLET NODE,SETPOINTMANAGER:MIXEDAIR,PVAV_REHEAT_1_HEATC 1 SAT MANAGER,Sensor,1
 Non-Parent Node Connection,PVAV_REHEAT_1_HEATC 1-PVAV_REHEAT_1_FANNODE,SETPOINTMANAGER:MIXEDAIR,PVAV_REHEAT_1_HEATC 1 SAT MANAGER,Sensor,1
 Non-Parent Node Connection,PVAV_REHEAT_1_HEATC 1-PVAV_REHEAT_1_FANNODE,SETPOINTMANAGER:MIXEDAIR,PVAV_REHEAT_1_HEATC 1 SAT MANAGER,Setpoint,1
 Non-Parent Node Connection,PVAV_REHEAT_1 SUPPLY EQUIPMENT OUTLET NODE,SETPOINTMANAGER:MIXEDAIR,PVAV_REHEAT_1 OA MIXED AIR TEMP MANAGER,Sensor,1
 Non-Parent Node Connection,PVAV_REHEAT_1_HEATC 1-PVAV_REHEAT_1_FANNODE,SETPOINTMANAGER:MIXEDAIR,PVAV_REHEAT_1 OA MIXED AIR TEMP MANAGER,Sensor,1
 Non-Parent Node Connection,PVAV_REHEAT_1_OA-PVAV_REHEAT_1_COOLC 1NODE,SETPOINTMANAGER:MIXEDAIR,PVAV_REHEAT_1 OA MIXED AIR TEMP MANAGER,Setpoint,1
 Non-Parent Node Connection,HEATSYS1 DEMAND INLET PIPE-HEATSYS1 DEMAND MIXER,CONNECTOR:SPLITTER,HEATSYS1 DEMAND SPLITTER,Inlet,1
 Non-Parent Node Connection,ZN_1_FLR_1_SEC_1 VAV BOX REHEAT COIL DEMAND INLET NODE,CONNECTOR:SPLITTER,HEATSYS1 DEMAND SPLITTER,Outlet,1
 Non-Parent Node Connection,ZN_1_FLR_2_SEC_1 VAV BOX REHEAT COIL DEMAND INLET NODE,CONNECTOR:SPLITTER,HEATSYS1 DEMAND SPLITTER,Outlet,1
 Non-Parent Node Connection,ZN_1_FLR_3_SEC_1 VAV BOX REHEAT COIL DEMAND INLET NODE,CONNECTOR:SPLITTER,HEATSYS1 DEMAND SPLITTER,Outlet,1
 Non-Parent Node Connection,ZN_1_FLR_1_SEC_2 VAV BOX REHEAT COIL DEMAND INLET NODE,CONNECTOR:SPLITTER,HEATSYS1 DEMAND SPLITTER,Outlet,1
 Non-Parent Node Connection,ZN_1_FLR_2_SEC_2 VAV BOX REHEAT COIL DEMAND INLET NODE,CONNECTOR:SPLITTER,HEATSYS1 DEMAND SPLITTER,Outlet,1
 Non-Parent Node Connection,ZN_1_FLR_3_SEC_2 VAV BOX REHEAT COIL DEMAND INLET NODE,CONNECTOR:SPLITTER,HEATSYS1 DEMAND SPLITTER,Outlet,1
 Non-Parent Node Connection,ZN_1_FLR_1_SEC_3 VAV BOX REHEAT COIL DEMAND INLET NODE,CONNECTOR:SPLITTER,HEATSYS1 DEMAND SPLITTER,Outlet,1
 Non-Parent Node Connection,ZN_1_FLR_2_SEC_3 VAV BOX REHEAT COIL DEMAND INLET NODE,CONNECTOR:SPLITTER,HEATSYS1 DEMAND SPLITTER,Outlet,1
 Non-Parent Node Connection,ZN_1_FLR_3_SEC_3 VAV BOX REHEAT COIL DEMAND INLET NODE,CONNECTOR:SPLITTER,HEATSYS1 DEMAND SPLITTER,Outlet,1
 Non-Parent Node Connection,ZN_1_FLR_1_SEC_4 VAV BOX REHEAT COIL DEMAND INLET NODE,CONNECTOR:SPLITTER,HEATSYS1 DEMAND SPLITTER,Outlet,1
 Non-Parent Node Connection,ZN_1_FLR_2_SEC_4 VAV BOX REHEAT COIL DEMAND INLET NODE,CONNECTOR:SPLITTER,HEATSYS1 DEMAND SPLITTER,Outlet,1
[...]
 Non-Parent Node Connection,ZN_1_FLR_1_SEC_3 VAV BOX INLET NODE NAME,AIRLOOPHVAC:ZONESPLITTER,PVAV_REHEAT_1 SUPPLY AIR SPLITTER,Outlet,1
 Non-Parent Node Connection,ZN_1_FLR_2_SEC_3 VAV BOX INLET NODE NAME,AIRLOOPHVAC:ZONESPLITTER,PVAV_REHEAT_1 SUPPLY AIR SPLITTER,Outlet,1
 Non-Parent Node Connection,ZN_1_FLR_3_SEC_3 VAV BOX INLET NODE NAME,AIRLOOPHVAC:ZONESPLITTER,PVAV_REHEAT_1 SUPPLY AIR SPLITTER,Outlet,1
 Non-Parent Node Connection,ZN_1_FLR_1_SEC_4 VAV BOX INLET NODE NAME,AIRLOOPHVAC:ZONESPLITTER,PVAV_REHEAT_1 SUPPLY AIR SPLITTER,Outlet,1
 Non-Parent Node Connection,ZN_1_FLR_2_SEC_4 VAV BOX INLET NODE NAME,AIRLOOPHVAC:ZONESPLITTER,PVAV_REHEAT_1 SUPPLY AIR SPLITTER,Outlet,1
 Non-Parent Node Connection,ZN_1_FLR_3_SEC_4 VAV BOX INLET NODE NAME,AIRLOOPHVAC:ZONESPLITTER,PVAV_REHEAT_1 SUPPLY AIR SPLITTER,Outlet,1
 Non-Parent Node Connection,ZN_1_FLR_1_SEC_5 VAV BOX INLET NODE NAME,AIRLOOPHVAC:ZONESPLITTER,PVAV_REHEAT_1 SUPPLY AIR SPLITTER,Outlet,1
 Non-Parent Node Connection,ZN_1_FLR_2_SEC_5 VAV BOX INLET NODE NAME,AIRLOOPHVAC:ZONESPLITTER,PVAV_REHEAT_1 SUPPLY AIR SPLITTER,Outlet,1
 Non-Parent Node Connection,ZN_1_FLR_3_SEC_5 VAV BOX INLET NODE NAME,AIRLOOPHVAC:ZONESPLITTER,PVAV_REHEAT_1 SUPPLY AIR SPLITTER,Outlet,1
 Non-Parent Node Connection,ZN_1_FLR_1_SEC_1 VAV BOX DAMPER NODE,AIRTERMINAL:SINGLEDUCT:VAV:REHEAT,ZN_1_FLR_1_SEC_1 VAV BOX COMPONENT,Outlet,1
 Non-Parent Node Connection,ZN_1_FLR_1_SEC_1 VAV BOX INLET NODE NAME,AIRTERMINAL:SINGLEDUCT:VAV:REHEAT,ZN_1_FLR_1_SEC_1 VAV BOX COMPONENT,Inlet,1
 Non-Parent Node Connection,ZN_1_FLR_1_SEC_1 VAV BOX REHEAT COIL DEMAND INLET NODE,COIL:HEATING:WATER,ZN_1_FLR_1_SEC_1 VAV BOX REHEAT COIL,Inlet,2
 Non-Parent Node Connection,ZN_1_FLR_1_SEC_1 VAV BOX REHEAT COIL DEMAND OUTLET NODE,COIL:HEATING:WATER,ZN_1_FLR_1_SEC_1 VAV BOX REHEAT COIL,Outlet,2
 Non-Parent Node Connection,ZN_1_FLR_1_SEC_1 VAV BOX DAMPER NODE,COIL:HEATING:WATER,ZN_1_FLR_1_SEC_1 VAV BOX REHEAT COIL,Inlet,1
 Non-Parent Node Connection,ZN_1_FLR_1_SEC_1 VAV BOX OUTLET NODE NAME,COIL:HEATING:WATER,ZN_1_FLR_1_SEC_1 VAV BOX REHEAT COIL,Outlet,1
 Non-Parent Node Connection,ZN_1_FLR_2_SEC_1 VAV BOX REHEAT COIL DEMAND INLET NODE,COIL:HEATING:WATER,ZN_1_FLR_2_SEC_1 VAV BOX REHEAT COIL,Inlet,2
 Non-Parent Node Connection,ZN_1_FLR_2_SEC_1 VAV BOX REHEAT COIL DEMAND OUTLET NODE,COIL:HEATING:WATER,ZN_1_FLR_2_SEC_1 VAV BOX REHEAT COIL,Outlet,2
 Non-Parent Node Connection,ZN_1_FLR_2_SEC_1 VAV BOX DAMPER NODE,COIL:HEATING:WATER,ZN_1_FLR_2_SEC_1 VAV BOX REHEAT COIL,Inlet,1
 Non-Parent Node Connection,ZN_1_FLR_2_SEC_1 VAV BOX OUTLET NODE NAME,COIL:HEATING:WATER,ZN_1_FLR_2_SEC_1 VAV BOX REHEAT COIL,Outlet,1
 Non-Parent Node Connection,ZN_1_FLR_3_SEC_1 VAV BOX REHEAT COIL DEMAND INLET NODE,COIL:HEATING:WATER,ZN_1_FLR_3_SEC_1 VAV BOX REHEAT COIL,Inlet,2
 Non-Parent Node Connection,ZN_1_FLR_3_SEC_1 VAV BOX REHEAT COIL DEMAND OUTLET NODE,COIL:HEATING:WATER,ZN_1_FLR_3_SEC_1 VAV BOX REHEAT COIL,Outlet,2
 Non-Parent Node Connection,ZN_1_FLR_3_SEC_1 VAV BOX DAMPER NODE,COIL:HEATING:WATER,ZN_1_FLR_3_SEC_1 VAV BOX REHEAT COIL,Inlet,1
 Non-Parent Node Connection,ZN_1_FLR_3_SEC_1 VAV BOX OUTLET NODE NAME,COIL:HEATING:WATER,ZN_1_FLR_3_SEC_1 VAV BOX REHEAT COIL,Outlet,1
 Non-Parent Node Connection,ZN_1_FLR_1_SEC_2 VAV BOX REHEAT COIL DEMAND INLET NODE,COIL:HEATING:WATER,ZN_1_FLR_1_SEC_2 VAV BOX REHEAT COIL,Inlet,2
 Non-Parent Node Connection,ZN_1_FLR_1_SEC_2 VAV BOX REHEAT COIL DEMAND OUTLET NODE,COIL:HEATING:WATER,ZN_1_FLR_1_SEC_2 VAV BOX REHEAT COIL,Outlet,2
 Non-Parent Node Connection,ZN_1_FLR_1_SEC_2 VAV BOX DAMPER NODE,COIL:HEATING:WATER,ZN_1_FLR_1_SEC_2 VAV BOX REHEAT COIL,Inlet,1
 Non-Parent Node Connection,ZN_1_FLR_1_SEC_2 VAV BOX OUTLET NODE NAME,COIL:HEATING:WATER,ZN_1_FLR_1_SEC_2 VAV BOX REHEAT COIL,Outlet,1
 Non-Parent Node Connection,ZN_1_FLR_2_SEC_2 VAV BOX REHEAT COIL DEMAND INLET NODE,COIL:HEATING:WATER,ZN_1_FLR_2_SEC_2 VAV BOX REHEAT COIL,Inlet,2
 Non-Parent Node Connection,ZN_1_FLR_2_SEC_2 VAV BOX REHEAT COIL DEMAND OUTLET NODE,COIL:HEATING:WATER,ZN_1_FLR_2_SEC_2 VAV BOX REHEAT COIL,Outlet,2
 Non-Parent Node Connection,ZN_1_FLR_2_SEC_2 VAV BOX DAMPER NODE,COIL:HEATING:WATER,ZN_1_FLR_2_SEC_2 VAV BOX REHEAT COIL,Inlet,1
 Non-Parent Node Connection,ZN_1_FLR_2_SEC_2 VAV BOX OUTLET NODE NAME,COIL:HEATING:WATER,ZN_1_FLR_2_SEC_2 VAV BOX REHEAT COIL,Outlet,1
 Non-Parent Node Connection,ZN_1_FLR_3_SEC_2 VAV BOX REHEAT COIL DEMAND INLET NODE,COIL:HEATING:WATER,ZN_1_FLR_3_SEC_2 VAV BOX REHEAT COIL,Inlet,2
 Non-Parent Node Connection,ZN_1_FLR_3_SEC_2 VAV BOX REHEAT COIL DEMAND OUTLET NODE,COIL:HEATING:WATER,ZN_1_FLR_3_SEC_2 VAV BOX REHEAT COIL,Outlet,2
 Non-Parent Node Connection,ZN_1_FLR_3_SEC_2 VAV BOX DAMPER NODE,COIL:HEATING:WATER,ZN_1_FLR_3_SEC_2 VAV BOX REHEAT COIL,Inlet,1
 Non-Parent Node Connection,ZN_1_FLR_3_SEC_2 VAV BOX OUTLET NODE NAME,COIL:HEATING:WATER,ZN_1_FLR_3_SEC_2 VAV BOX REHEAT COIL,Outlet,1
 Non-Parent Node Connection,ZN_1_FLR_1_SEC_3 VAV BOX REHEAT COIL DEMAND INLET NODE,COIL:HEATING:WATER,ZN_1_FLR_1_SEC_3 VAV BOX REHEAT COIL,Inlet,2
 Non-Parent Node Connection,ZN_1_FLR_1_SEC_3 VAV BOX REHEAT COIL DEMAND OUTLET NODE,COIL:HEATING:WATER,ZN_1_FLR_1_SEC_3 VAV BOX REHEAT COIL,Outlet,2
 Non-Parent Node Connection,ZN_1_FLR_1_SEC_3 VAV BOX DAMPER NODE,COIL:HEATING:WATER,ZN_1_FLR_1_SEC_3 VAV BOX REHEAT COIL,Inlet,1
 Non-Parent Node Connection,ZN_1_FLR_1_SEC_3 VAV BOX OUTLET NODE NAME,COIL:HEATING:WATER,ZN_1_FLR_1_SEC_3 VAV BOX REHEAT COIL,Outlet,1
 Non-Parent Node Connection,ZN_1_FLR_2_SEC_3 VAV BOX REHEAT COIL DEMAND INLET NODE,COIL:HEATING:WATER,ZN_1_FLR_2_SEC_3 VAV BOX REHEAT COIL,Inlet,2
 Non-Parent Node Connection,ZN_1_FLR_2_SEC_3 VAV BOX REHEAT COIL DEMAND OUTLET NODE,COIL:HEATING:WATER,ZN_1_FLR_2_SEC_3 VAV BOX REHEAT COIL,Outlet,2
 Non-Parent Node Connection,ZN_1_FLR_2_SEC_3 VAV BOX DAMPER NODE,COIL:HEATING:WATER,ZN_1_FLR_2_SEC_3 VAV BOX REHEAT COIL,Inlet,1
 Non-Parent Node Connection,ZN_1_FLR_2_SEC_3 VAV BOX OUTLET NODE NAME,COIL:HEATING:WATER,ZN_1_FLR_2_SEC_3 VAV BOX REHEAT COIL,Outlet,1
 Non-Parent Node Connection,ZN_1_FLR_3_SEC_3 VAV BOX REHEAT COIL DEMAND INLET NODE,COIL:HEATING:WATER,ZN_1_FLR_3_SEC_3 VAV BOX REHEAT COIL,Inlet,2
 Non-Parent Node Connection,ZN_1_FLR_3_SEC_3 VAV BOX REHEAT COIL DEMAND OUTLET NODE,COIL:HEATING:WATER,ZN_1_FLR_3_SEC_3 VAV BOX REHEAT COIL,Outlet,2
 Non-Parent Node Connection,ZN_1_FLR_3_SEC_3 VAV BOX DAMPER NODE,COIL:HEATING:WATER,ZN_1_FLR_3_SEC_3 VAV BOX REHEAT COIL,Inlet,1
 Non-Parent Node Connection,ZN_1_FLR_3_SEC_3 VAV BOX OUTLET NODE NAME,COIL:HEATING:WATER,ZN_1_FLR_3_SEC_3 VAV BOX REHEAT COIL,Outlet,1
 Non-Parent Node Connection,ZN_1_FLR_1_SEC_4 VAV BOX REHEAT COIL DEMAND INLET NODE,COIL:HEATING:WATER,ZN_1_FLR_1_SEC_4 VAV BOX REHEAT COIL,Inlet,2
 Non-Parent Node Connection,ZN_1_FLR_1_SEC_4 VAV BOX REHEAT COIL DEMAND OUTLET NODE,COIL:HEATING:WATER,ZN_1_FLR_1_SEC_4 VAV BOX REHEAT COIL,Outlet,2
 Non-Parent Node Connection,ZN_1_FLR_1_SEC_4 VAV BOX DAMPER NODE,COIL:HEATING:WATER,ZN_1_FLR_1_SEC_4 VAV BOX REHEAT COIL,Inlet,1
 Non-Parent Node Connection,ZN_1_FLR_1_SEC_4 VAV BOX OUTLET NODE NAME,COIL:HEATING:WATER,ZN_1_FLR_1_SEC_4 VAV BOX REHEAT COIL,Outlet,1
 Non-Parent Node Connection,ZN_1_FLR_2_SEC_4 VAV BOX REHEAT COIL DEMAND INLET NODE,COIL:HEATING:WATER,ZN_1_FLR_2_SEC_4 VAV BOX REHEAT COIL,Inlet,2
 Non-Parent Node Connection,ZN_1_FLR_2_SEC_4 VAV BOX REHEAT COIL DEMAND OUTLET NODE,COIL:HEATING:WATER,ZN_1_FLR_2_SEC_4 VAV BOX REHEAT COIL,Outlet,2
 Non-Parent Node Connection,ZN_1_FLR_2_SEC_4 VAV BOX DAMPER NODE,COIL:HEATING:WATER,ZN_1_FLR_2_SEC_4 VAV BOX REHEAT COIL,Inlet,1
 Non-Parent Node Connection,ZN_1_FLR_2_SEC_4 VAV BOX OUTLET NODE NAME,COIL:HEATING:WATER,ZN_1_FLR_2_SEC_4 VAV BOX REHEAT COIL,Outlet,1
 Non-Parent Node Connection,ZN_1_FLR_3_SEC_4 VAV BOX REHEAT COIL DEMAND INLET NODE,COIL:HEATING:WATER,ZN_1_FLR_3_SEC_4 VAV BOX REHEAT COIL,Inlet,2
 Non-Parent Node Connection,ZN_1_FLR_3_SEC_4 VAV BOX REHEAT COIL DEMAND OUTLET NODE,COIL:HEATING:WATER,ZN_1_FLR_3_SEC_4 VAV BOX REHEAT COIL,Outlet,2
 Non-Parent Node Connection,ZN_1_FLR_3_SEC_4 VAV BOX DAMPER NODE,COIL:HEATING:WATER,ZN_1_FLR_3_SEC_4 VAV BOX REHEAT COIL,Inlet,1
 Non-Parent Node Connection,ZN_1_FLR_3_SEC_4 VAV BOX OUTLET NODE NAME,COIL:HEATING:WATER,ZN_1_FLR_3_SEC_4 VAV BOX REHEAT COIL,Outlet,1
 Non-Parent Node Connection,ZN_1_FLR_1_SEC_5 VAV BOX REHEAT COIL DEMAND INLET NODE,COIL:HEATING:WATER,ZN_1_FLR_1_SEC_5 VAV BOX REHEAT COIL,Inlet,2
 Non-Parent Node Connection,ZN_1_FLR_1_SEC_5 VAV BOX REHEAT COIL DEMAND OUTLET NODE,COIL:HEATING:WATER,ZN_1_FLR_1_SEC_5 VAV BOX REHEAT COIL,Outlet,2
 Non-Parent Node Connection,ZN_1_FLR_1_SEC_5 VAV BOX DAMPER NODE,COIL:HEATING:WATER,ZN_1_FLR_1_SEC_5 VAV BOX REHEAT COIL,Inlet,1
 Non-Parent Node Connection,ZN_1_FLR_1_SEC_5 VAV BOX OUTLET NODE NAME,COIL:HEATING:WATER,ZN_1_FLR_1_SEC_5 VAV BOX REHEAT COIL,Outlet,1
 Non-Parent Node Connection,ZN_1_FLR_2_SEC_5 VAV BOX REHEAT COIL DEMAND INLET NODE,COIL:HEATING:WATER,ZN_1_FLR_2_SEC_5 VAV BOX REHEAT COIL,Inlet,2
 Non-Parent Node Connection,ZN_1_FLR_2_SEC_5 VAV BOX REHEAT COIL DEMAND OUTLET NODE,COIL:HEATING:WATER,ZN_1_FLR_2_SEC_5 VAV BOX REHEAT COIL,Outlet,2
 Non-Parent Node Connection,ZN_1_FLR_2_SEC_5 VAV BOX DAMPER NODE,COIL:HEATING:WATER,ZN_1_FLR_2_SEC_5 VAV BOX REHEAT COIL,Inlet,1
 Non-Parent Node Connection,ZN_1_FLR_2_SEC_5 VAV BOX OUTLET NODE NAME,COIL:HEATING:WATER,ZN_1_FLR_2_SEC_5 VAV BOX REHEAT COIL,Outlet,1
 Non-Parent Node Connection,ZN_1_FLR_3_SEC_5 VAV BOX REHEAT COIL DEMAND INLET NODE,COIL:HEATING:WATER,ZN_1_FLR_3_SEC_5 VAV BOX REHEAT COIL,Inlet,2
 Non-Parent Node Connection,ZN_1_FLR_3_SEC_5 VAV BOX REHEAT COIL DEMAND OUTLET NODE,COIL:HEATING:WATER,ZN_1_FLR_3_SEC_5 VAV BOX REHEAT COIL,Outlet,2
 Non-Parent Node Connection,ZN_1_FLR_3_SEC_5 VAV BOX DAMPER NODE,COIL:HEATING:WATER,ZN_1_FLR_3_SEC_5 VAV BOX REHEAT COIL,Inlet,1
 Non-Parent Node Connection,ZN_1_FLR_3_SEC_5 VAV BOX OUTLET NODE NAME,COIL:HEATING:WATER,ZN_1_FLR_3_SEC_5 VAV BOX REHEAT COIL,Outlet,1
 Non-Parent Node Connection,PVAV_REHEAT_1_HEATC 1 DEMAND INLET NODE,COIL:HEATING:WATER,PVAV_REHEAT_1_HEATC 1,Inlet,2
 Non-Parent Node Connection,PVAV_REHEAT_1_HEATC 1 DEMAND OUTLET NODE,COIL:HEATING:WATER,PVAV_REHEAT_1_HEATC 1,Outlet,2
 Non-Parent Node Connection,PVAV_REHEAT_1_COOLC 1-PVAV_REHEAT_1_HEATC 1NODE,COIL:HEATING:WATER,PVAV_REHEAT_1_HEATC 1,Inlet,1
 Non-Parent Node Connection,PVAV_REHEAT_1_HEATC 1-PVAV_REHEAT_1_FANNODE,COIL:HEATING:WATER,PVAV_REHEAT_1_HEATC 1,Outlet,1
 Non-Parent Node Connection,ZN_1_FLR_2_SEC_1 VAV BOX DAMPER NODE,AIRTERMINAL:SINGLEDUCT:VAV:REHEAT,ZN_1_FLR_2_SEC_1 VAV BOX COMPONENT,Outlet,1
 Non-Parent Node Connection,ZN_1_FLR_2_SEC_1 VAV BOX INLET NODE NAME,AIRTERMINAL:SINGLEDUCT:VAV:REHEAT,ZN_1_FLR_2_SEC_1 VAV BOX COMPONENT,Inlet,1
 Non-Parent Node Connection,ZN_1_FLR_3_SEC_1 VAV BOX DAMPER NODE,AIRTERMINAL:SINGLEDUCT:VAV:REHEAT,ZN_1_FLR_3_SEC_1 VAV BOX COMPONENT,Outlet,1
 Non-Parent Node Connection,ZN_1_FLR_3_SEC_1 VAV BOX INLET NODE NAME,AIRTERMINAL:SINGLEDUCT:VAV:REHEAT,ZN_1_FLR_3_SEC_1 VAV BOX COMPONENT,Inlet,1
 Non-Parent Node Connection,ZN_1_FLR_1_SEC_2 VAV BOX DAMPER NODE,AIRTERMINAL:SINGLEDUCT:VAV:REHEAT,ZN_1_FLR_1_SEC_2 VAV BOX COMPONENT,Outlet,1
 Non-Parent Node Connection,ZN_1_FLR_1_SEC_2 VAV BOX INLET NODE NAME,AIRTERMINAL:SINGLEDUCT:VAV:REHEAT,ZN_1_FLR_1_SEC_2 VAV BOX COMPONENT,Inlet,1
 Non-Parent Node Connection,ZN_1_FLR_2_SEC_2 VAV BOX DAMPER NODE,AIRTERMINAL:SINGLEDUCT:VAV:REHEAT,ZN_1_FLR_2_SEC_2 VAV BOX COMPONENT,Outlet,1
 Non-Parent Node Connection,ZN_1_FLR_2_SEC_2 VAV BOX INLET NODE NAME,AIRTERMINAL:SINGLEDUCT:VAV:REHEAT,ZN_1_FLR_2_SEC_2 VAV BOX COMPONENT,Inlet,1
 Non-Parent Node Connection,ZN_1_FLR_3_SEC_2 VAV BOX DAMPER NODE,AIRTERMINAL:SINGLEDUCT:VAV:REHEAT,ZN_1_FLR_3_SEC_2 VAV BOX COMPONENT,Outlet,1
 Non-Parent Node Connection,ZN_1_FLR_3_SEC_2 VAV BOX INLET NODE NAME,AIRTERMINAL:SINGLEDUCT:VAV:REHEAT,ZN_1_FLR_3_SEC_2 VAV BOX COMPONENT,Inlet,1
 Non-Parent Node Connection,ZN_1_FLR_1_SEC_3 VAV BOX DAMPER NODE,AIRTERMINAL:SINGLEDUCT:VAV:REHEAT,ZN_1_FLR_1_SEC_3 VAV BOX COMPONENT,Outlet,1
 Non-Parent Node Connection,ZN_1_FLR_1_SEC_3 VAV BOX INLET NODE NAME,AIRTERMINAL:SINGLEDUCT:VAV:REHEAT,ZN_1_FLR_1_SEC_3 VAV BOX COMPONENT,Inlet,1
 Non-Parent Node Connection,ZN_1_FLR_2_SEC_3 VAV BOX DAMPER NODE,AIRTERMINAL:SINGLEDUCT:VAV:REHEAT,ZN_1_FLR_2_SEC_3 VAV BOX COMPONENT,Outlet,1
 Non-Parent Node Connection,ZN_1_FLR_2_SEC_3 VAV BOX INLET NODE NAME,AIRTERMINAL:SINGLEDUCT:VAV:REHEAT,ZN_1_FLR_2_SEC_3 VAV BOX COMPONENT,Inlet,1
 Non-Parent Node Connection,ZN_1_FLR_3_SEC_3 VAV BOX DAMPER NODE,AIRTERMINAL:SINGLEDUCT:VAV:REHEAT,ZN_1_FLR_3_SEC_3 VAV BOX COMPONENT,Outlet,1
 Non-Parent Node Connection,ZN_1_FLR_3_SEC_3 VAV BOX INLET NODE NAME,AIRTERMINAL:SINGLEDUCT:VAV:REHEAT,ZN_1_FLR_3_SEC_3 VAV BOX COMPONENT,Inlet,1
 Non-Parent Node Connection,ZN_1_FLR_1_SEC_4 VAV BOX DAMPER NODE,AIRTERMINAL:SINGLEDUCT:VAV:REHEAT,ZN_1_FLR_1_SEC_4 VAV BOX COMPONENT,Outlet,1
 Non-Parent Node Connection,ZN_1_FLR_1_SEC_4 VAV BOX INLET NODE NAME,AIRTERMINAL:SINGLEDUCT:VAV:REHEAT,ZN_1_FLR_1_SEC_4 VAV BOX COMPONENT,Inlet,1
 Non-Parent Node Connection,ZN_1_FLR_2_SEC_4 VAV BOX DAMPER NODE,AIRTERMINAL:SINGLEDUCT:VAV:REHEAT,ZN_1_FLR_2_SEC_4 VAV BOX COMPONENT,Outlet,1
 Non-Parent Node Connection,ZN_1_FLR_2_SEC_4 VAV BOX INLET NODE NAME,AIRTERMINAL:SINGLEDUCT:VAV:REHEAT,ZN_1_FLR_2_SEC_4 VAV BOX COMPONENT,Inlet,1
 Non-Parent Node Connection,ZN_1_FLR_3_SEC_4 VAV BOX DAMPER NODE,AIRTERMINAL:SINGLEDUCT:VAV:REHEAT,ZN_1_FLR_3_SEC_4 VAV BOX COMPONENT,Outlet,1
 Non-Parent Node Connection,ZN_1_FLR_3_SEC_4 VAV BOX INLET NODE NAME,AIRTERMINAL:SINGLEDUCT:VAV:REHEAT,ZN_1_FLR_3_SEC_4 VAV BOX COMPONENT,Inlet,1
 Non-Parent Node Connection,ZN_1_FLR_1_SEC_5 VAV BOX DAMPER NODE,AIRTERMINAL:SINGLEDUCT:VAV:REHEAT,ZN_1_FLR_1_SEC_5 VAV BOX COMPONENT,Outlet,1
 Non-Parent Node Connection,ZN_1_FLR_1_SEC_5 VAV BOX INLET NODE NAME,AIRTERMINAL:SINGLEDUCT:VAV:REHEAT,ZN_1_FLR_1_SEC_5 VAV BOX COMPONENT,Inlet,1
 Non-Parent Node Connection,ZN_1_FLR_2_SEC_5 VAV BOX DAMPER NODE,AIRTERMINAL:SINGLEDUCT:VAV:REHEAT,ZN_1_FLR_2_SEC_5 VAV BOX COMPONENT,Outlet,1
 Non-Parent Node Connection,ZN_1_FLR_2_SEC_5 VAV BOX INLET NODE NAME,AIRTERMINAL:SINGLEDUCT:VAV:REHEAT,ZN_1_FLR_2_SEC_5 VAV BOX COMPONENT,Inlet,1
 Non-Parent Node Connection,ZN_1_FLR_3_SEC_5 VAV BOX DAMPER NODE,AIRTERMINAL:SINGLEDUCT:VAV:REHEAT,ZN_1_FLR_3_SEC_5 VAV BOX COMPONENT,Outlet,1
 Non-Parent Node Connection,ZN_1_FLR_3_SEC_5 VAV BOX INLET NODE NAME,AIRTERMINAL:SINGLEDUCT:VAV:REHEAT,ZN_1_FLR_3_SEC_5 VAV BOX COMPONENT,Inlet,1
 Non-Parent Node Connection,PVAV_REHEAT_1 ZONE EQUIPMENT OUTLET NODE,AIRLOOPHVAC:ZONEMIXER,PVAV_REHEAT_1 RETURN AIR MIXER,Outlet,1
 Non-Parent Node Connection,ZN_1_FLR_1_SEC_1 RETURN AIR NODE NAME,AIRLOOPHVAC:ZONEMIXER,PVAV_REHEAT_1 RETURN AIR MIXER,Inlet,1
 Non-Parent Node Connection,ZN_1_FLR_2_SEC_1 RETURN AIR NODE NAME,AIRLOOPHVAC:ZONEMIXER,PVAV_REHEAT_1 RETURN AIR MIXER,Inlet,1
 Non-Parent Node Connection,ZN_1_FLR_3_SEC_1 RETURN AIR NODE NAME,AIRLOOPHVAC:ZONEMIXER,PVAV_REHEAT_1 RETURN AIR MIXER,Inlet,1
 Non-Parent Node Connection,ZN_1_FLR_1_SEC_2 RETURN AIR NODE NAME,AIRLOOPHVAC:ZONEMIXER,PVAV_REHEAT_1 RETURN AIR MIXER,Inlet,1
 Non-Parent Node Connection,ZN_1_FLR_2_SEC_2 RETURN AIR NODE NAME,AIRLOOPHVAC:ZONEMIXER,PVAV_REHEAT_1 RETURN AIR MIXER,Inlet,1
 Non-Parent Node Connection,ZN_1_FLR_3_SEC_2 RETURN AIR NODE NAME,AIRLOOPHVAC:ZONEMIXER,PVAV_REHEAT_1 RETURN AIR MIXER,Inlet,1
 Non-Parent Node Connection,ZN_1_FLR_1_SEC_3 RETURN AIR NODE NAME,AIRLOOPHVAC:ZONEMIXER,PVAV_REHEAT_1 RETURN AIR MIXER,Inlet,1
 Non-Parent Node Connection,ZN_1_FLR_2_SEC_3 RETURN AIR NODE NAME,AIRLOOPHVAC:ZONEMIXER,PVAV_REHEAT_1 RETURN AIR MIXER,Inlet,1
 Non-Parent Node Connection,ZN_1_FLR_3_SEC_3 RETURN AIR NODE NAME,AIRLOOPHVAC:ZONEMIXER,PVAV_REHEAT_1 RETURN AIR MIXER,Inlet,1
 Non-Parent Node Connection,ZN_1_FLR_1_SEC_4 RETURN AIR NODE NAME,AIRLOOPHVAC:ZONEMIXER,PVAV_REHEAT_1 RETURN AIR MIXER,Inlet,1
 Non-Parent Node Connection,ZN_1_FLR_2_SEC_4 RETURN AIR NODE NAME,AIRLOOPHVAC:ZONEMIXER,PVAV_REHEAT_1 RETURN AIR MIXER,Inlet,1
 Non-Parent Node Connection,ZN_1_FLR_3_SEC_4 RETURN AIR NODE NAME,AIRLOOPHVAC:ZONEMIXER,PVAV_REHEAT_1 RETURN AIR MIXER,Inlet,1
 Non-Parent Node Connection,ZN_1_FLR_1_SEC_5 RETURN AIR NODE NAME,AIRLOOPHVAC:ZONEMIXER,PVAV_REHEAT_1 RETURN AIR MIXER,Inlet,1
 Non-Parent Node Connection,ZN_1_FLR_2_SEC_5 RETURN AIR NODE NAME,AIRLOOPHVAC:ZONEMIXER,PVAV_REHEAT_1 RETURN AIR MIXER,Inlet,1
 Non-Parent Node Connection,ZN_1_FLR_3_SEC_5 RETURN AIR NODE NAME,AIRLOOPHVAC:ZONEMIXER,PVAV_REHEAT_1 RETURN AIR MIXER,Inlet,1
 Non-Parent Node Connection,PVAV_REHEAT_1_OA-PVAV_REHEAT_1_COOLC 1NODE,OUTDOORAIR:MIXER,PVAV_REHEAT_1_OAMIXING BOX,Outlet,1
 Non-Parent Node Connection,PVAV_REHEAT_1_OAINLET NODE,OUTDOORAIR:MIXER,PVAV_REHEAT_1_OAMIXING BOX,Inlet,1
 Non-Parent Node Connection,PVAV_REHEAT_1_OARELIEF NODE,OUTDOORAIR:MIXER,PVAV_REHEAT_1_OAMIXING BOX,ReliefAir,1
 Non-Parent Node Connection,PVAV_REHEAT_1 SUPPLY EQUIPMENT INLET NODE,OUTDOORAIR:MIXER,PVAV_REHEAT_1_OAMIXING BOX,Inlet,1
 Non-Parent Node Connection,PVAV_REHEAT_1_HEATC 1-PVAV_REHEAT_1_FANNODE,CONTROLLER:WATERCOIL,PVAV_REHEAT_1_HEATC 1_CONTROLLER,Sensor,1
 Non-Parent Node Connection,PVAV_REHEAT_1_HEATC 1 DEMAND INLET NODE,CONTROLLER:WATERCOIL,PVAV_REHEAT_1_HEATC 1_CONTROLLER,Actuator,1
 Non-Parent Node Connection,PVAV_REHEAT_1_OA-PVAV_REHEAT_1_COOLC 1NODE,CONTROLLER:OUTDOORAIR,PVAV_REHEAT_1_OA_CONTROLLER,Sensor,1
 Non-Parent Node Connection,PVAV_REHEAT_1_OAINLET NODE,CONTROLLER:OUTDOORAIR,PVAV_REHEAT_1_OA_CONTROLLER,Actuator,1
 Non-Parent Node Connection,PVAV_REHEAT_1_OARELIEF NODE,CONTROLLER:OUTDOORAIR,PVAV_REHEAT_1_OA_CONTROLLER,Actuator,1
 Non-Parent Node Connection,PVAV_REHEAT_1 SUPPLY EQUIPMENT INLET NODE,CONTROLLER:OUTDOORAIR,PVAV_REHEAT_1_OA_CONTROLLER,Sensor,1
 Non-Parent Node Connection,PVAV_REHEAT_1_OA-PVAV_REHEAT_1_COOLC 1NODE,COIL:COOLING:DX:TWOSPEED,PVAV_REHEAT_1_COOLC 1 DXCOIL,Inlet,1
 Non-Parent Node Connection,PVAV_REHEAT_1_COOLC 1-PVAV_REHEAT_1_HEATC 1NODE,COIL:COOLING:DX:TWOSPEED,PVAV_REHEAT_1_COOLC 1 DXCOIL,Outlet,1
 Non-Parent Node Connection,PVAV_REHEAT_1_COOLC 1_CONDAIRINLETNODE,COIL:COOLING:DX:TWOSPEED,PVAV_REHEAT_1_COOLC 1 DXCOIL,OutsideAirReference,1
 Non-Parent Node Connection,PVAV_REHEAT_1_HEATC 1-PVAV_REHEAT_1_FANNODE,FAN:VARIABLEVOLUME,PVAV_REHEAT_1_FAN,Inlet,1
 Non-Parent Node Connection,PVAV_REHEAT_1 SUPPLY EQUIPMENT OUTLET NODE,FAN:VARIABLEVOLUME,PVAV_REHEAT_1_FAN,Outlet,1
 Non-Parent Node Connection,HEATSYS1 SUPPLY EQUIP BYPASS INLET NODE,PIPE:ADIABATIC,HEATSYS1 SUPPLY EQUIPMENT BYPASS PIPE,Inlet,1
 Non-Parent Node Connection,HEATSYS1 SUPPLY EQUIP BYPASS OUTLET NODE,PIPE:ADIABATIC,HEATSYS1 SUPPLY EQUIPMENT BYPASS PIPE,Outlet,1
 Non-Parent Node Connection,HEATSYS1 SUPPLY MIXER-HEATSYS1 SUPPLY OUTLET PIPE,PIPE:ADIABATIC,HEATSYS1 SUPPLY OUTLET PIPE,Inlet,1
 Non-Parent Node Connection,HEATSYS1 SUPPLY OUTLET NODE,PIPE:ADIABATIC,HEATSYS1 SUPPLY OUTLET PIPE,Outlet,1
 Non-Parent Node Connection,HEATSYS1 DEMAND INLET NODE,PIPE:ADIABATIC,HEATSYS1 DEMAND INLET PIPE,Inlet,1
 Non-Parent Node Connection,HEATSYS1 DEMAND INLET PIPE-HEATSYS1 DEMAND MIXER,PIPE:ADIABATIC,HEATSYS1 DEMAND INLET PIPE,Outlet,1
 Non-Parent Node Connection,HEATSYS1 DEMAND BYPASS PIPE INLET NODE,PIPE:ADIABATIC,HEATSYS1 DEMAND BYPASS PIPE,Inlet,1
 Non-Parent Node Connection,HEATSYS1 DEMAND BYPASS PIPE OUTLET NODE,PIPE:ADIABATIC,HEATSYS1 DEMAND BYPASS PIPE,Outlet,1
 Non-Parent Node Connection,HEATSYS1 DEMAND MIXER-HEATSYS1 DEMAND OUTLET PIPE,PIPE:ADIABATIC,HEATSYS1 DEMAND OUTLET PIPE,Inlet,1
 Non-Parent Node Connection,HEATSYS1 DEMAND OUTLET NODE,PIPE:ADIABATIC,HEATSYS1 DEMAND OUTLET PIPE,Outlet,1
 Non-Parent Node Connection,HEATSYS1 PUMP-HEATSYS1 BOILERNODE,BOILER:HOTWATER,HEATSYS1 BOILER,Inlet,1
 Non-Parent Node Connection,HEATSYS1 SUPPLY EQUIPMENT OUTLET NODE,BOILER:HOTWATER,HEATSYS1 BOILER,Outlet,1
 Non-Parent Node Connection,HEATSYS1 SUPPLY INLET NODE,PUMP:VARIABLESPEED,HEATSYS1 PUMP,Inlet,1
 Non-Parent Node Connection,HEATSYS1 PUMP-HEATSYS1 BOILERNODEVIACONNECTOR,PUMP:VARIABLESPEED,HEATSYS1 PUMP,Outlet,1
