  0
SECTION
  2
ENTITIES
999
DXF created from EnergyPlus
999
Program Version,EnergyPlus, Linux, VERSION 7.1.0.012, YMD=2012.07.31 17:48
999
Polygon Action,ThickPolyline
999
Color Scheme,Default
999
Text - True North
  0
TEXT
  8
1
  6
Continuous
 62
  3
 10
      -11.00000
 20
        3.00000
 30
        0.10000
 40
 .25
  1
True North
 41
 0.0
  7
MONOTXT
210
0.0
220
0.0
230
1.0
999
Text - Building Title
  0
TEXT
  8
1
  6
Continuous
 62
  3
 10
      -14.00000
 20
       -1.00000
 30
        0.10000
 40
 .4
  1
Building - BuildChicago
 41
 0.0
  7
MONOTXT
210
0.0
220
0.0
230
1.0
999
North Arrow Stem
  0
3DFACE
  8
1
 62
  3
 10
      -10.00000
 20
        3.00000
 30
        0.10000
 11
      -10.00000
 21
        3.00000
 31
        0.00000
 12
      -10.00000
 22
        0.00000
 32
        0.00000
 13
      -10.00000
 23
        0.00000
 33
        0.10000
999
North Arrow Head 1
  0
3DFACE
  8
1
 62
  3
 10
      -10.00000
 20
        3.00000
 30
        0.10000
 11
      -10.00000
 21
        3.00000
 31
        0.00000
 12
      -10.50000
 22
        2.13398
 32
        0.00000
 13
      -10.50000
 23
        2.13398
 33
        0.10000
999
North Arrow Head 2
  0
3DFACE
  8
1
 62
  3
 10
      -10.00000
 20
        3.00000
 30
        0.10000
 11
      -10.00000
 21
        3.00000
 31
        0.00000
 12
       -9.50000
 22
        2.13398
 32
        0.00000
 13
       -9.50000
 23
        2.13398
 33
        0.10000
999
North Arrow Side 1
  0
3DFACE
  8
1
 62
  3
 10
      -10.50000
 20
        4.50000
 30
        0.10000
 11
      -10.50000
 21
        4.50000
 31
        0.00000
 12
      -10.50000
 22
        3.50000
 32
        0.00000
 13
      -10.50000
 23
        3.50000
 33
        0.10000
999
North Arrow Side 2
  0
3DFACE
  8
1
 62
  3
 10
      -10.50000
 20
        4.50000
 30
        0.10000
 11
      -10.50000
 21
        4.50000
 31
        0.00000
 12
       -9.50000
 22
        3.50000
 32
        0.00000
 13
       -9.50000
 23
        3.50000
 33
        0.10000
999
North Arrow Side 3
  0
3DFACE
  8
1
 62
  3
 10
       -9.50000
 20
        4.50000
 30
        0.10000
 11
       -9.50000
 21
        4.50000
 31
        0.00000
 12
       -9.50000
 22
        3.50000
 32
        0.00000
 13
       -9.50000
 23
        3.50000
 33
        0.10000
999
Zone Names
999
Zone=1:ZN_1_FLR_1_SEC_1
999
Zone=2:ZN_1_FLR_2_SEC_1
999
Zone=3:ZN_1_FLR_3_SEC_1
999
Zone=4:ZN_1_FLR_1_SEC_2
999
Zone=5:ZN_1_FLR_2_SEC_2
999
Zone=6:ZN_1_FLR_3_SEC_2
999
Zone=7:ZN_1_FLR_1_SEC_3
999
Zone=8:ZN_1_FLR_2_SEC_3
999
Zone=9:ZN_1_FLR_3_SEC_3
999
Zone=10:ZN_1_FLR_1_SEC_4
999
Zone=11:ZN_1_FLR_2_SEC_4
999
Zone=12:ZN_1_FLR_3_SEC_4
999
Zone=13:ZN_1_FLR_1_SEC_5
999
Zone=14:ZN_1_FLR_2_SEC_5
999
Zone=15:ZN_1_FLR_3_SEC_5
999
ZN_1_FLR_1_SEC_1:ZN_1_FLR_1_SEC_1_WALL_1
  0
3DFACE
  8
ZN_1_FLR_1_SEC_1
 62
 43
 10
        0.00000
 20
        0.00000
 30
        3.80000
 11
        0.00000
 21
        0.00000
 31
        0.00000
 12
       18.75100
 22
        0.00000
 32
        0.00000
 13
       18.75100
 23
        0.00000
 33
        3.80000
999
ZN_1_FLR_1_SEC_1:ZN_1_FLR_1_SEC_1_WALL_1_WINDOW_1
  0
3DFACE
  8
ZN_1_FLR_1_SEC_1
 62
143
 10
        0.05000
 20
        0.00000
 30
        2.62810
 11
        0.05000
 21
        0.00000
 31
        1.10000
 12
       18.70100
 22
        0.00000
 32
        1.10000
 13
       18.70100
 23
        0.00000
 33
        2.62810
999
ZN_1_FLR_1_SEC_1:ZN_1_FLR_1_SEC_1_WALL_2
  0
3DFACE
  8
ZN_1_FLR_1_SEC_1
 62
 43
 10
       18.75100
 20
        0.00000
 30
        3.80000
 11
       18.75100
 21
        0.00000
 31
        0.00000
 12
       15.09500
 22
        3.65600
 32
        0.00000
 13
       15.09500
 23
        3.65600
 33
        3.80000
999
ZN_1_FLR_1_SEC_1:ZN_1_FLR_1_SEC_1_WALL_3
  0
3DFACE
  8
ZN_1_FLR_1_SEC_1
 62
 43
 10
       15.09500
 20
        3.65600
 30
        3.80000
 11
       15.09500
 21
        3.65600
 31
        0.00000
 12
        3.65600
 22
        3.65600
 32
        0.00000
 13
        3.65600
 23
        3.65600
 33
        3.80000
999
ZN_1_FLR_1_SEC_1:ZN_1_FLR_1_SEC_1_WALL_4
  0
3DFACE
  8
ZN_1_FLR_1_SEC_1
 62
 43
 10
        3.65600
 20
        3.65600
 30
        3.80000
 11
        3.65600
 21
        3.65600
 31
        0.00000
 12
        0.00000
 22
        0.00000
 32
        0.00000
 13
        0.00000
 23
        0.00000
 33
        3.80000
999
ZN_1_FLR_1_SEC_1:ZN_1_FLR_1_SEC_1_FLOOR
  0
3DFACE
  8
ZN_1_FLR_1_SEC_1
 62
  8
 10
        3.65600
 20
        3.65600
 30
        0.00000
 11
       15.09500
 21
        3.65600
 31
        0.00000
 12
       18.75100
 22
        0.00000
 32
        0.00000
 13
        0.00000
 23
        0.00000
 33
        0.00000
999
ZN_1_FLR_1_SEC_1:ZN_1_FLR_1_SEC_1_CEILING
  0
3DFACE
  8
ZN_1_FLR_1_SEC_1
 62
 15
 10
        0.00000
 20
        0.00000
 30
        3.80000
 11
       18.75100
 21
        0.00000
 31
        3.80000
 12
       15.09500
 22
        3.65600
 32
        3.80000
 13
        3.65600
 23
        3.65600
 33
        3.80000
999
ZN_1_FLR_2_SEC_1:ZN_1_FLR_2_SEC_1_WALL_1
  0
3DFACE
  8
ZN_1_FLR_2_SEC_1
 62
 43
 10
        0.00000
 20
        0.00000
 30
       11.40000
 11
        0.00000
 21
        0.00000
 31
        7.60000
 12
       18.75100
 22
        0.00000
 32
        7.60000
 13
       18.75100
 23
        0.00000
 33
       11.40000
999
ZN_1_FLR_2_SEC_1:ZN_1_FLR_2_SEC_1_WALL_1_WINDOW_1
  0
3DFACE
  8
ZN_1_FLR_2_SEC_1
 62
143
 10
        0.05000
 20
        0.00000
 30
       10.22810
 11
        0.05000
 21
        0.00000
 31
        8.70000
 12
       18.70100
 22
        0.00000
 32
        8.70000
 13
       18.70100
 23
        0.00000
 33
       10.22810
999
ZN_1_FLR_2_SEC_1:ZN_1_FLR_2_SEC_1_WALL_2
  0
3DFACE
  8
ZN_1_FLR_2_SEC_1
 62
 43
 10
       18.75100
 20
        0.00000
 30
       11.40000
 11
       18.75100
 21
        0.00000
 31
        7.60000
 12
       15.09500
 22
        3.65600
 32
        7.60000
 13
       15.09500
 23
        3.65600
 33
       11.40000
999
ZN_1_FLR_2_SEC_1:ZN_1_FLR_2_SEC_1_WALL_3
  0
3DFACE
  8
ZN_1_FLR_2_SEC_1
 62
 43
 10
       15.09500
 20
        3.65600
 30
       11.40000
 11
       15.09500
 21
        3.65600
 31
        7.60000
 12
        3.65600
 22
        3.65600
 32
        7.60000
 13
        3.65600
 23
        3.65600
 33
       11.40000
999
ZN_1_FLR_2_SEC_1:ZN_1_FLR_2_SEC_1_WALL_4
  0
3DFACE
  8
ZN_1_FLR_2_SEC_1
 62
 43
 10
        3.65600
 20
        3.65600
 30
       11.40000
 11
        3.65600
 21
        3.65600
 31
        7.60000
 12
        0.00000
 22
        0.00000
 32
        7.60000
 13
        0.00000
 23
        0.00000
 33
       11.40000
999
ZN_1_FLR_2_SEC_1:ZN_1_FLR_2_SEC_1_FLOOR
  0
3DFACE
  8
ZN_1_FLR_2_SEC_1
 62
  8
 10
        3.65600
 20
        3.65600
 30
        7.60000
 11
       15.09500
 21
        3.65600
 31
        7.60000
 12
       18.75100
 22
        0.00000
 32
        7.60000
 13
        0.00000
 23
        0.00000
 33
        7.60000
999
ZN_1_FLR_2_SEC_1:ZN_1_FLR_2_SEC_1_CEILING
  0
3DFACE
  8
ZN_1_FLR_2_SEC_1
 62
 15
 10
        0.00000
 20
        0.00000
 30
       11.40000
 11
       18.75100
 21
        0.00000
 31
       11.40000
 12
       15.09500
 22
        3.65600
 32
       11.40000
 13
        3.65600
 23
        3.65600
 33
       11.40000
999
ZN_1_FLR_3_SEC_1:ZN_1_FLR_3_SEC_1_WALL_1
  0
3DFACE
  8
ZN_1_FLR_3_SEC_1
 62
 43
 10
        0.00000
 20
        0.00000
 30
       19.00000
 11
        0.00000
 21
        0.00000
 31
       15.20000
 12
       18.75100
 22
        0.00000
 32
       15.20000
 13
       18.75100
 23
        0.00000
 33
       19.00000
999
ZN_1_FLR_3_SEC_1:ZN_1_FLR_3_SEC_1_WALL_1_WINDOW_1
  0
3DFACE
  8
ZN_1_FLR_3_SEC_1
 62
143
 10
        0.05000
 20
        0.00000
 30
       17.82810
 11
        0.05000
 21
        0.00000
 31
       16.30000
 12
       18.70100
 22
        0.00000
 32
       16.30000
 13
       18.70100
 23
        0.00000
 33
       17.82810
999
ZN_1_FLR_3_SEC_1:ZN_1_FLR_3_SEC_1_WALL_2
  0
3DFACE
  8
ZN_1_FLR_3_SEC_1
 62
 43
 10
       18.75100
 20
        0.00000
 30
       19.00000
 11
       18.75100
 21
        0.00000
 31
       15.20000
 12
       15.09500
 22
        3.65600
 32
       15.20000
 13
       15.09500
 23
        3.65600
 33
       19.00000
999
ZN_1_FLR_3_SEC_1:ZN_1_FLR_3_SEC_1_WALL_3
  0
3DFACE
  8
ZN_1_FLR_3_SEC_1
 62
 43
 10
       15.09500
 20
        3.65600
 30
       19.00000
 11
       15.09500
 21
        3.65600
 31
       15.20000
 12
        3.65600
 22
        3.65600
 32
       15.20000
 13
        3.65600
 23
        3.65600
 33
       19.00000
999
ZN_1_FLR_3_SEC_1:ZN_1_FLR_3_SEC_1_WALL_4
  0
3DFACE
  8
ZN_1_FLR_3_SEC_1
 62
 43
 10
        3.65600
 20
        3.65600
 30
       19.00000
 11
        3.65600
 21
        3.65600
 31
       15.20000
 12
        0.00000
 22
        0.00000
 32
       15.20000
 13
        0.00000
 23
        0.00000
 33
       19.00000
999
ZN_1_FLR_3_SEC_1:ZN_1_FLR_3_SEC_1_FLOOR
  0
3DFACE
  8
ZN_1_FLR_3_SEC_1
 62
  8
 10
        3.65600
 20
        3.65600
 30
       15.20000
 11
       15.09500
 21
        3.65600
 31
       15.20000
 12
       18.75100
 22
        0.00000
 32
       15.20000
 13
        0.00000
 23
        0.00000
 33
       15.20000
999
ZN_1_FLR_3_SEC_1:ZN_1_FLR_3_SEC_1_CEILING
  0
3DFACE
  8
ZN_1_FLR_3_SEC_1
 62
 15
 10
        0.00000
 20
        0.00000
 30
       19.00000
 11
       18.75100
 21
        0.00000
 31
       19.00000
 12
       15.09500
 22
        3.65600
 32
       19.00000
 13
        3.65600
 23
        3.65600
 33
       19.00000
999
ZN_1_FLR_1_SEC_2:ZN_1_FLR_1_SEC_2_WALL_1
  0
3DFACE
  8
ZN_1_FLR_1_SEC_2
 62
 43
 10
       18.75100
 20
        0.00000
 30
        3.80000
 11
       18.75100
 21
        0.00000
 31
        0.00000
 12
       18.75100
 22
        9.37550
 32
        0.00000
 13
       18.75100
 23
        9.37550
 33
        3.80000
999
ZN_1_FLR_1_SEC_2:ZN_1_FLR_1_SEC_2_WALL_1_WINDOW_1
  0
3DFACE
  8
ZN_1_FLR_1_SEC_2
 62
143
 10
       18.75100
 20
        0.05000
 30
        2.63640
 11
       18.75100
 21
        0.05000
 31
        1.10000
 12
       18.75100
 22
        9.32550
 32
        1.10000
 13
       18.75100
 23
        9.32550
 33
        2.63640
999
ZN_1_FLR_1_SEC_2:ZN_1_FLR_1_SEC_2_WALL_2
  0
3DFACE
  8
ZN_1_FLR_1_SEC_2
 62
 43
 10
       18.75100
 20
        9.37550
 30
        3.80000
 11
       18.75100
 21
        9.37550
 31
        0.00000
 12
       15.09500
 22
        5.71950
 32
        0.00000
 13
       15.09500
 23
        5.71950
 33
        3.80000
999
ZN_1_FLR_1_SEC_2:ZN_1_FLR_1_SEC_2_WALL_3
  0
3DFACE
  8
ZN_1_FLR_1_SEC_2
 62
 43
 10
       15.09500
 20
        5.71950
 30
        3.80000
 11
       15.09500
 21
        5.71950
 31
        0.00000
 12
       15.09500
 22
        3.65600
 32
        0.00000
 13
       15.09500
 23
        3.65600
 33
        3.80000
999
ZN_1_FLR_1_SEC_2:ZN_1_FLR_1_SEC_2_WALL_4
  0
3DFACE
  8
ZN_1_FLR_1_SEC_2
 62
 43
 10
       15.09500
 20
        3.65600
 30
        3.80000
 11
       15.09500
 21
        3.65600
 31
        0.00000
 12
       18.75100
 22
        0.00000
 32
        0.00000
 13
       18.75100
 23
        0.00000
 33
        3.80000
999
ZN_1_FLR_1_SEC_2:ZN_1_FLR_1_SEC_2_FLOOR
  0
3DFACE
  8
ZN_1_FLR_1_SEC_2
 62
  8
 10
       15.09500
 20
        3.65600
 30
        0.00000
 11
       15.09500
 21
        5.71950
 31
        0.00000
 12
       18.75100
 22
        9.37550
 32
        0.00000
 13
       18.75100
 23
        0.00000
 33
        0.00000
999
ZN_1_FLR_1_SEC_2:ZN_1_FLR_1_SEC_2_CEILING
  0
3DFACE
  8
ZN_1_FLR_1_SEC_2
 62
 15
 10
       18.75100
 20
        0.00000
 30
        3.80000
 11
       18.75100
 21
        9.37550
 31
        3.80000
 12
       15.09500
 22
        5.71950
 32
        3.80000
 13
       15.09500
 23
        3.65600
 33
        3.80000
999
ZN_1_FLR_2_SEC_2:ZN_1_FLR_2_SEC_2_WALL_1
  0
3DFACE
  8
ZN_1_FLR_2_SEC_2
 62
 43
 10
       18.75100
 20
        0.00000
 30
       11.40000
 11
       18.75100
 21
        0.00000
 31
        7.60000
 12
       18.75100
 22
        9.37550
 32
        7.60000
 13
       18.75100
 23
        9.37550
 33
       11.40000
999
ZN_1_FLR_2_SEC_2:ZN_1_FLR_2_SEC_2_WALL_1_WINDOW_1
  0
3DFACE
  8
ZN_1_FLR_2_SEC_2
 62
143
 10
       18.75100
 20
        0.05000
 30
       10.23640
 11
       18.75100
 21
        0.05000
 31
        8.70000
 12
       18.75100
 22
        9.32550
 32
        8.70000
 13
       18.75100
 23
        9.32550
 33
       10.23640
999
ZN_1_FLR_2_SEC_2:ZN_1_FLR_2_SEC_2_WALL_2
  0
3DFACE
  8
ZN_1_FLR_2_SEC_2
 62
 43
 10
       18.75100
 20
        9.37550
 30
       11.40000
 11
       18.75100
 21
        9.37550
 31
        7.60000
 12
       15.09500
 22
        5.71950
 32
        7.60000
 13
       15.09500
 23
        5.71950
 33
       11.40000
999
ZN_1_FLR_2_SEC_2:ZN_1_FLR_2_SEC_2_WALL_3
  0
3DFACE
  8
ZN_1_FLR_2_SEC_2
 62
 43
 10
       15.09500
 20
        5.71950
 30
       11.40000
 11
       15.09500
 21
        5.71950
 31
        7.60000
 12
       15.09500
 22
        3.65600
 32
        7.60000
 13
       15.09500
 23
        3.65600
 33
       11.40000
999
ZN_1_FLR_2_SEC_2:ZN_1_FLR_2_SEC_2_WALL_4
  0
3DFACE
  8
ZN_1_FLR_2_SEC_2
 62
 43
 10
       15.09500
 20
        3.65600
 30
       11.40000
 11
       15.09500
 21
        3.65600
 31
        7.60000
 12
       18.75100
 22
        0.00000
 32
        7.60000
 13
       18.75100
 23
        0.00000
 33
       11.40000
999
ZN_1_FLR_2_SEC_2:ZN_1_FLR_2_SEC_2_FLOOR
  0
3DFACE
  8
ZN_1_FLR_2_SEC_2
 62
  8
 10
       15.09500
 20
        3.65600
 30
        7.60000
 11
       15.09500
 21
        5.71950
 31
        7.60000
 12
       18.75100
 22
        9.37550
 32
        7.60000
 13
       18.75100
 23
        0.00000
 33
        7.60000
999
ZN_1_FLR_2_SEC_2:ZN_1_FLR_2_SEC_2_CEILING
  0
3DFACE
  8
ZN_1_FLR_2_SEC_2
 62
 15
 10
       18.75100
 20
        0.00000
 30
       11.40000
 11
       18.75100
 21
        9.37550
 31
       11.40000
 12
       15.09500
 22
        5.71950
 32
       11.40000
 13
       15.09500
 23
        3.65600
 33
       11.40000
999
ZN_1_FLR_3_SEC_2:ZN_1_FLR_3_SEC_2_WALL_1
  0
3DFACE
  8
ZN_1_FLR_3_SEC_2
 62
 43
 10
       18.75100
 20
        0.00000
 30
       19.00000
 11
       18.75100
 21
        0.00000
 31
       15.20000
 12
       18.75100
 22
        9.37550
 32
       15.20000
 13
       18.75100
 23
        9.37550
 33
       19.00000
999
ZN_1_FLR_3_SEC_2:ZN_1_FLR_3_SEC_2_WALL_1_WINDOW_1
  0
3DFACE
  8
ZN_1_FLR_3_SEC_2
 62
143
 10
       18.75100
 20
        0.05000
 30
       17.83640
 11
       18.75100
 21
        0.05000
 31
       16.30000
 12
       18.75100
 22
        9.32550
 32
       16.30000
 13
       18.75100
 23
        9.32550
 33
       17.83640
999
ZN_1_FLR_3_SEC_2:ZN_1_FLR_3_SEC_2_WALL_2
  0
3DFACE
  8
ZN_1_FLR_3_SEC_2
 62
 43
 10
       18.75100
 20
        9.37550
 30
       19.00000
 11
       18.75100
 21
        9.37550
 31
       15.20000
 12
       15.09500
 22
        5.71950
 32
       15.20000
 13
       15.09500
 23
        5.71950
 33
       19.00000
999
ZN_1_FLR_3_SEC_2:ZN_1_FLR_3_SEC_2_WALL_3
  0
3DFACE
  8
ZN_1_FLR_3_SEC_2
 62
 43
 10
       15.09500
 20
        5.71950
 30
       19.00000
 11
       15.09500
 21
        5.71950
 31
       15.20000
 12
       15.09500
 22
        3.65600
 32
       15.20000
 13
       15.09500
 23
        3.65600
 33
       19.00000
999
ZN_1_FLR_3_SEC_2:ZN_1_FLR_3_SEC_2_WALL_4
  0
3DFACE
  8
ZN_1_FLR_3_SEC_2
 62
 43
 10
       15.09500
 20
        3.65600
 30
       19.00000
 11
       15.09500
 21
        3.65600
 31
       15.20000
 12
       18.75100
 22
        0.00000
 32
       15.20000
 13
       18.75100
 23
        0.00000
 33
       19.00000
999
ZN_1_FLR_3_SEC_2:ZN_1_FLR_3_SEC_2_FLOOR
  0
3DFACE
  8
ZN_1_FLR_3_SEC_2
 62
  8
 10
       15.09500
 20
        3.65600
 30
       15.20000
 11
       15.09500
 21
        5.71950
 31
       15.20000
 12
       18.75100
 22
        9.37550
 32
       15.20000
 13
       18.75100
 23
        0.00000
 33
       15.20000
999
ZN_1_FLR_3_SEC_2:ZN_1_FLR_3_SEC_2_CEILING
  0
3DFACE
  8
ZN_1_FLR_3_SEC_2
 62
 15
 10
       18.75100
 20
        0.00000
 30
       19.00000
 11
       18.75100
 21
        9.37550
 31
       19.00000
 12
       15.09500
 22
        5.71950
 32
       19.00000
 13
       15.09500
 23
        3.65600
 33
       19.00000
999
ZN_1_FLR_1_SEC_3:ZN_1_FLR_1_SEC_3_WALL_1
  0
3DFACE
  8
ZN_1_FLR_1_SEC_3
 62
 43
 10
        3.65600
 20
        5.71950
 30
        3.80000
 11
        3.65600
 21
        5.71950
 31
        0.00000
 12
       15.09500
 22
        5.71950
 32
        0.00000
 13
       15.09500
 23
        5.71950
 33
        3.80000
999
ZN_1_FLR_1_SEC_3:ZN_1_FLR_1_SEC_3_WALL_2
  0
3DFACE
  8
ZN_1_FLR_1_SEC_3
 62
 43
 10
       15.09500
 20
        5.71950
 30
        3.80000
 11
       15.09500
 21
        5.71950
 31
        0.00000
 12
       18.75100
 22
        9.37550
 32
        0.00000
 13
       18.75100
 23
        9.37550
 33
        3.80000
999
ZN_1_FLR_1_SEC_3:ZN_1_FLR_1_SEC_3_WALL_3
  0
3DFACE
  8
ZN_1_FLR_1_SEC_3
 62
 43
 10
       18.75100
 20
        9.37550
 30
        3.80000
 11
       18.75100
 21
        9.37550
 31
        0.00000
 12
        0.00000
 22
        9.37550
 32
        0.00000
 13
        0.00000
 23
        9.37550
 33
        3.80000
999
ZN_1_FLR_1_SEC_3:ZN_1_FLR_1_SEC_3_WALL_3_WINDOW_1
  0
3DFACE
  8
ZN_1_FLR_1_SEC_3
 62
143
 10
       18.70100
 20
        9.37550
 30
        2.62810
 11
       18.70100
 21
        9.37550
 31
        1.10000
 12
        0.05000
 22
        9.37550
 32
        1.10000
 13
        0.05000
 23
        9.37550
 33
        2.62810
999
ZN_1_FLR_1_SEC_3:ZN_1_FLR_1_SEC_3_WALL_4
  0
3DFACE
  8
ZN_1_FLR_1_SEC_3
 62
 43
 10
        0.00000
 20
        9.37550
 30
        3.80000
 11
        0.00000
 21
        9.37550
 31
        0.00000
 12
        3.65600
 22
        5.71950
 32
        0.00000
 13
        3.65600
 23
        5.71950
 33
        3.80000
999
ZN_1_FLR_1_SEC_3:ZN_1_FLR_1_SEC_3_FLOOR
  0
3DFACE
  8
ZN_1_FLR_1_SEC_3
 62
  8
 10
        0.00000
 20
        9.37550
 30
        0.00000
 11
       18.75100
 21
        9.37550
 31
        0.00000
 12
       15.09500
 22
        5.71950
 32
        0.00000
 13
        3.65600
 23
        5.71950
 33
        0.00000
999
ZN_1_FLR_1_SEC_3:ZN_1_FLR_1_SEC_3_CEILING
  0
3DFACE
  8
ZN_1_FLR_1_SEC_3
 62
 15
 10
        3.65600
 20
        5.71950
 30
        3.80000
 11
       15.09500
 21
        5.71950
 31
        3.80000
 12
       18.75100
 22
        9.37550
 32
        3.80000
 13
        0.00000
 23
        9.37550
 33
        3.80000
999
ZN_1_FLR_2_SEC_3:ZN_1_FLR_2_SEC_3_WALL_1
  0
3DFACE
  8
ZN_1_FLR_2_SEC_3
 62
 43
 10
        3.65600
 20
        5.71950
 30
       11.40000
 11
        3.65600
 21
        5.71950
 31
        7.60000
 12
       15.09500
 22
        5.71950
 32
        7.60000
 13
       15.09500
 23
        5.71950
 33
       11.40000
999
ZN_1_FLR_2_SEC_3:ZN_1_FLR_2_SEC_3_WALL_2
  0
3DFACE
  8
ZN_1_FLR_2_SEC_3
 62
 43
 10
       15.09500
 20
        5.71950
 30
       11.40000
 11
       15.09500
 21
        5.71950
 31
        7.60000
 12
       18.75100
 22
        9.37550
 32
        7.60000
 13
       18.75100
 23
        9.37550
 33
       11.40000
999
ZN_1_FLR_2_SEC_3:ZN_1_FLR_2_SEC_3_WALL_3
  0
3DFACE
  8
ZN_1_FLR_2_SEC_3
 62
 43
 10
       18.75100
 20
        9.37550
 30
       11.40000
 11
       18.75100
 21
        9.37550
 31
        7.60000
 12
        0.00000
 22
        9.37550
 32
        7.60000
 13
        0.00000
 23
        9.37550
 33
       11.40000
999
ZN_1_FLR_2_SEC_3:ZN_1_FLR_2_SEC_3_WALL_3_WINDOW_1
  0
3DFACE
  8
ZN_1_FLR_2_SEC_3
 62
143
 10
       18.70100
 20
        9.37550
 30
       10.22810
 11
       18.70100
 21
        9.37550
 31
        8.70000
 12
        0.05000
 22
        9.37550
 32
        8.70000
 13
        0.05000
 23
        9.37550
 33
       10.22810
999
ZN_1_FLR_2_SEC_3:ZN_1_FLR_2_SEC_3_WALL_4
  0
3DFACE
  8
ZN_1_FLR_2_SEC_3
 62
 43
 10
        0.00000
 20
        9.37550
 30
       11.40000
 11
        0.00000
 21
        9.37550
 31
        7.60000
 12
        3.65600
 22
        5.71950
 32
        7.60000
 13
        3.65600
 23
        5.71950
 33
       11.40000
999
ZN_1_FLR_2_SEC_3:ZN_1_FLR_2_SEC_3_FLOOR
  0
3DFACE
  8
ZN_1_FLR_2_SEC_3
 62
  8
 10
        0.00000
 20
        9.37550
 30
        7.60000
 11
       18.75100
 21
        9.37550
 31
        7.60000
 12
       15.09500
 22
        5.71950
 32
        7.60000
 13
        3.65600
 23
        5.71950
 33
        7.60000
999
ZN_1_FLR_2_SEC_3:ZN_1_FLR_2_SEC_3_CEILING
  0
3DFACE
  8
ZN_1_FLR_2_SEC_3
 62
 15
 10
        3.65600
 20
        5.71950
 30
       11.40000
 11
       15.09500
 21
        5.71950
 31
       11.40000
 12
       18.75100
 22
        9.37550
 32
       11.40000
 13
        0.00000
 23
        9.37550
 33
       11.40000
999
ZN_1_FLR_3_SEC_3:ZN_1_FLR_3_SEC_3_WALL_1
  0
3DFACE
  8
ZN_1_FLR_3_SEC_3
 62
 43
 10
        3.65600
 20
        5.71950
 30
       19.00000
 11
        3.65600
 21
        5.71950
 31
       15.20000
 12
       15.09500
 22
        5.71950
 32
       15.20000
 13
       15.09500
 23
        5.71950
 33
       19.00000
999
ZN_1_FLR_3_SEC_3:ZN_1_FLR_3_SEC_3_WALL_2
  0
3DFACE
  8
ZN_1_FLR_3_SEC_3
 62
 43
 10
       15.09500
 20
        5.71950
 30
       19.00000
 11
       15.09500
 21
        5.71950
 31
       15.20000
 12
       18.75100
 22
        9.37550
 32
       15.20000
 13
       18.75100
 23
        9.37550
 33
       19.00000
999
ZN_1_FLR_3_SEC_3:ZN_1_FLR_3_SEC_3_WALL_3
  0
3DFACE
  8
ZN_1_FLR_3_SEC_3
 62
 43
 10
       18.75100
 20
        9.37550
 30
       19.00000
 11
       18.75100
 21
        9.37550
 31
       15.20000
 12
        0.00000
 22
        9.37550
 32
       15.20000
 13
        0.00000
 23
        9.37550
 33
       19.00000
999
ZN_1_FLR_3_SEC_3:ZN_1_FLR_3_SEC_3_WALL_3_WINDOW_1
  0
3DFACE
  8
ZN_1_FLR_3_SEC_3
 62
143
 10
       18.70100
 20
        9.37550
 30
       17.82810
 11
       18.70100
 21
        9.37550
 31
       16.30000
 12
        0.05000
 22
        9.37550
 32
       16.30000
 13
        0.05000
 23
        9.37550
 33
       17.82810
999
ZN_1_FLR_3_SEC_3:ZN_1_FLR_3_SEC_3_WALL_4
  0
3DFACE
  8
ZN_1_FLR_3_SEC_3
 62
 43
 10
        0.00000
 20
        9.37550
 30
       19.00000
 11
        0.00000
 21
        9.37550
 31
       15.20000
 12
        3.65600
 22
        5.71950
 32
       15.20000
 13
        3.65600
 23
        5.71950
 33
       19.00000
999
ZN_1_FLR_3_SEC_3:ZN_1_FLR_3_SEC_3_FLOOR
  0
3DFACE
  8
ZN_1_FLR_3_SEC_3
 62
  8
 10
        0.00000
 20
        9.37550
 30
       15.20000
 11
       18.75100
 21
        9.37550
 31
       15.20000
 12
       15.09500
 22
        5.71950
 32
       15.20000
 13
        3.65600
 23
        5.71950
 33
       15.20000
999
ZN_1_FLR_3_SEC_3:ZN_1_FLR_3_SEC_3_CEILING
  0
3DFACE
  8
ZN_1_FLR_3_SEC_3
 62
 15
 10
        3.65600
 20
        5.71950
 30
       19.00000
 11
       15.09500
 21
        5.71950
 31
       19.00000
 12
       18.75100
 22
        9.37550
 32
       19.00000
 13
        0.00000
 23
        9.37550
 33
       19.00000
999
ZN_1_FLR_1_SEC_4:ZN_1_FLR_1_SEC_4_WALL_1
  0
3DFACE
  8
ZN_1_FLR_1_SEC_4
 62
 43
 10
        0.00000
 20
        0.00000
 30
        3.80000
 11
        0.00000
 21
        0.00000
 31
        0.00000
 12
        3.65600
 22
        3.65600
 32
        0.00000
 13
        3.65600
 23
        3.65600
 33
        3.80000
999
ZN_1_FLR_1_SEC_4:ZN_1_FLR_1_SEC_4_WALL_2
  0
3DFACE
  8
ZN_1_FLR_1_SEC_4
 62
 43
 10
        3.65600
 20
        3.65600
 30
        3.80000
 11
        3.65600
 21
        3.65600
 31
        0.00000
 12
        3.65600
 22
        5.71950
 32
        0.00000
 13
        3.65600
 23
        5.71950
 33
        3.80000
999
ZN_1_FLR_1_SEC_4:ZN_1_FLR_1_SEC_4_WALL_3
  0
3DFACE
  8
ZN_1_FLR_1_SEC_4
 62
 43
 10
        3.65600
 20
        5.71950
 30
        3.80000
 11
        3.65600
 21
        5.71950
 31
        0.00000
 12
        0.00000
 22
        9.37550
 32
        0.00000
 13
        0.00000
 23
        9.37550
 33
        3.80000
999
ZN_1_FLR_1_SEC_4:ZN_1_FLR_1_SEC_4_WALL_4
  0
3DFACE
  8
ZN_1_FLR_1_SEC_4
 62
 43
 10
        0.00000
 20
        9.37550
 30
        3.80000
 11
        0.00000
 21
        9.37550
 31
        0.00000
 12
        0.00000
 22
        0.00000
 32
        0.00000
 13
        0.00000
 23
        0.00000
 33
        3.80000
999
ZN_1_FLR_1_SEC_4:ZN_1_FLR_1_SEC_4_WALL_4_WINDOW_1
  0
3DFACE
  8
ZN_1_FLR_1_SEC_4
 62
143
 10
        0.00000
 20
        9.32550
 30
        2.63640
 11
        0.00000
 21
        9.32550
 31
        1.10000
 12
        0.00000
 22
        0.05000
 32
        1.10000
 13
        0.00000
 23
        0.05000
 33
        2.63640
999
ZN_1_FLR_1_SEC_4:ZN_1_FLR_1_SEC_4_FLOOR
  0
3DFACE
  8
ZN_1_FLR_1_SEC_4
 62
  8
 10
        0.00000
 20
        9.37550
 30
        0.00000
 11
        3.65600
 21
        5.71950
 31
        0.00000
 12
        3.65600
 22
        3.65600
 32
        0.00000
 13
        0.00000
 23
        0.00000
 33
        0.00000
999
ZN_1_FLR_1_SEC_4:ZN_1_FLR_1_SEC_4_CEILING
  0
3DFACE
  8
ZN_1_FLR_1_SEC_4
 62
 15
 10
        0.00000
 20
        0.00000
 30
        3.80000
 11
        3.65600
 21
        3.65600
 31
        3.80000
 12
        3.65600
 22
        5.71950
 32
        3.80000
 13
        0.00000
 23
        9.37550
 33
        3.80000
999
ZN_1_FLR_2_SEC_4:ZN_1_FLR_2_SEC_4_WALL_1
  0
3DFACE
  8
ZN_1_FLR_2_SEC_4
 62
 43
 10
        0.00000
 20
        0.00000
 30
       11.40000
 11
        0.00000
 21
        0.00000
 31
        7.60000
 12
        3.65600
 22
        3.65600
 32
        7.60000
 13
        3.65600
 23
        3.65600
 33
       11.40000
999
ZN_1_FLR_2_SEC_4:ZN_1_FLR_2_SEC_4_WALL_2
  0
3DFACE
  8
ZN_1_FLR_2_SEC_4
 62
 43
 10
        3.65600
 20
        3.65600
 30
       11.40000
 11
        3.65600
 21
        3.65600
 31
        7.60000
 12
        3.65600
 22
        5.71950
 32
        7.60000
 13
        3.65600
 23
        5.71950
 33
       11.40000
999
ZN_1_FLR_2_SEC_4:ZN_1_FLR_2_SEC_4_WALL_3
  0
3DFACE
  8
ZN_1_FLR_2_SEC_4
 62
 43
 10
        3.65600
 20
        5.71950
 30
       11.40000
 11
        3.65600
 21
        5.71950
 31
        7.60000
 12
        0.00000
 22
        9.37550
 32
        7.60000
 13
        0.00000
 23
        9.37550
 33
       11.40000
999
ZN_1_FLR_2_SEC_4:ZN_1_FLR_2_SEC_4_WALL_4
  0
3DFACE
  8
ZN_1_FLR_2_SEC_4
 62
 43
 10
        0.00000
 20
        9.37550
 30
       11.40000
 11
        0.00000
 21
        9.37550
 31
        7.60000
 12
        0.00000
 22
        0.00000
 32
        7.60000
 13
        0.00000
 23
        0.00000
 33
       11.40000
999
ZN_1_FLR_2_SEC_4:ZN_1_FLR_2_SEC_4_WALL_4_WINDOW_1
  0
3DFACE
  8
ZN_1_FLR_2_SEC_4
 62
143
 10
        0.00000
 20
        9.32550
 30
       10.23640
 11
        0.00000
 21
        9.32550
 31
        8.70000
 12
        0.00000
 22
        0.05000
 32
        8.70000
 13
        0.00000
 23
        0.05000
 33
       10.23640
999
ZN_1_FLR_2_SEC_4:ZN_1_FLR_2_SEC_4_FLOOR
  0
3DFACE
  8
ZN_1_FLR_2_SEC_4
 62
  8
 10
        0.00000
 20
        9.37550
 30
        7.60000
 11
        3.65600
 21
        5.71950
 31
        7.60000
 12
        3.65600
 22
        3.65600
 32
        7.60000
 13
        0.00000
 23
        0.00000
 33
        7.60000
999
ZN_1_FLR_2_SEC_4:ZN_1_FLR_2_SEC_4_CEILING
  0
3DFACE
  8
ZN_1_FLR_2_SEC_4
 62
 15
 10
        0.00000
 20
        0.00000
 30
       11.40000
 11
        3.65600
 21
        3.65600
 31
       11.40000
 12
        3.65600
 22
        5.71950
 32
       11.40000
 13
        0.00000
 23
        9.37550
 33
       11.40000
999
ZN_1_FLR_3_SEC_4:ZN_1_FLR_3_SEC_4_WALL_1
  0
3DFACE
  8
ZN_1_FLR_3_SEC_4
 62
 43
 10
        0.00000
 20
        0.00000
 30
       19.00000
 11
        0.00000
 21
        0.00000
 31
       15.20000
 12
        3.65600
 22
        3.65600
 32
       15.20000
 13
        3.65600
 23
        3.65600
 33
       19.00000
999
ZN_1_FLR_3_SEC_4:ZN_1_FLR_3_SEC_4_WALL_2
  0
3DFACE
  8
ZN_1_FLR_3_SEC_4
 62
 43
 10
        3.65600
 20
        3.65600
 30
       19.00000
 11
        3.65600
 21
        3.65600
 31
       15.20000
 12
        3.65600
 22
        5.71950
 32
       15.20000
 13
        3.65600
 23
        5.71950
 33
       19.00000
999
ZN_1_FLR_3_SEC_4:ZN_1_FLR_3_SEC_4_WALL_3
  0
3DFACE
  8
ZN_1_FLR_3_SEC_4
 62
 43
 10
        3.65600
 20
        5.71950
 30
       19.00000
 11
        3.65600
 21
        5.71950
 31
       15.20000
 12
        0.00000
 22
        9.37550
 32
       15.20000
 13
        0.00000
 23
        9.37550
 33
       19.00000
999
ZN_1_FLR_3_SEC_4:ZN_1_FLR_3_SEC_4_WALL_4
  0
3DFACE
  8
ZN_1_FLR_3_SEC_4
 62
 43
 10
        0.00000
 20
        9.37550
 30
       19.00000
 11
        0.00000
 21
        9.37550
 31
       15.20000
 12
        0.00000
 22
        0.00000
 32
       15.20000
 13
        0.00000
 23
        0.00000
 33
       19.00000
999
ZN_1_FLR_3_SEC_4:ZN_1_FLR_3_SEC_4_WALL_4_WINDOW_1
  0
3DFACE
  8
ZN_1_FLR_3_SEC_4
 62
143
 10
        0.00000
 20
        9.32550
 30
       17.83640
 11
        0.00000
 21
        9.32550
 31
       16.30000
 12
        0.00000
 22
        0.05000
 32
       16.30000
 13
        0.00000
 23
        0.05000
 33
       17.83640
999
ZN_1_FLR_3_SEC_4:ZN_1_FLR_3_SEC_4_FLOOR
  0
3DFACE
  8
ZN_1_FLR_3_SEC_4
 62
  8
 10
        0.00000
 20
        9.37550
 30
       15.20000
 11
        3.65600
 21
        5.71950
 31
       15.20000
 12
        3.65600
 22
        3.65600
 32
       15.20000
 13
        0.00000
 23
        0.00000
 33
       15.20000
999
ZN_1_FLR_3_SEC_4:ZN_1_FLR_3_SEC_4_CEILING
  0
3DFACE
  8
ZN_1_FLR_3_SEC_4
 62
 15
 10
        0.00000
 20
        0.00000
 30
       19.00000
 11
        3.65600
 21
        3.65600
 31
       19.00000
 12
        3.65600
 22
        5.71950
 32
       19.00000
 13
        0.00000
 23
        9.37550
 33
       19.00000
999
ZN_1_FLR_1_SEC_5:ZN_1_FLR_1_SEC_5_WALL_1
  0
3DFACE
  8
ZN_1_FLR_1_SEC_5
 62
 43
 10
        3.65600
 20
        3.65600
 30
        3.80000
 11
        3.65600
 21
        3.65600
 31
        0.00000
 12
       15.09500
 22
        3.65600
 32
        0.00000
 13
       15.09500
 23
        3.65600
 33
        3.80000
999
ZN_1_FLR_1_SEC_5:ZN_1_FLR_1_SEC_5_WALL_2
  0
3DFACE
  8
ZN_1_FLR_1_SEC_5
 62
 43
 10
       15.09500
 20
        3.65600
 30
        3.80000
 11
       15.09500
 21
        3.65600
 31
        0.00000
 12
       15.09500
 22
        5.71950
 32
        0.00000
 13
       15.09500
 23
        5.71950
 33
        3.80000
999
ZN_1_FLR_1_SEC_5:ZN_1_FLR_1_SEC_5_WALL_3
  0
3DFACE
  8
ZN_1_FLR_1_SEC_5
 62
 43
 10
       15.09500
 20
        5.71950
 30
        3.80000
 11
       15.09500
 21
        5.71950
 31
        0.00000
 12
        3.65600
 22
        5.71950
 32
        0.00000
 13
        3.65600
 23
        5.71950
 33
        3.80000
999
ZN_1_FLR_1_SEC_5:ZN_1_FLR_1_SEC_5_WALL_4
  0
3DFACE
  8
ZN_1_FLR_1_SEC_5
 62
 43
 10
        3.65600
 20
        5.71950
 30
        3.80000
 11
        3.65600
 21
        5.71950
 31
        0.00000
 12
        3.65600
 22
        3.65600
 32
        0.00000
 13
        3.65600
 23
        3.65600
 33
        3.80000
999
ZN_1_FLR_1_SEC_5:ZN_1_FLR_1_SEC_5_FLOOR
  0
3DFACE
  8
ZN_1_FLR_1_SEC_5
 62
  8
 10
        3.65600
 20
        5.71950
 30
        0.00000
 11
       15.09500
 21
        5.71950
 31
        0.00000
 12
       15.09500
 22
        3.65600
 32
        0.00000
 13
        3.65600
 23
        3.65600
 33
        0.00000
999
ZN_1_FLR_1_SEC_5:ZN_1_FLR_1_SEC_5_CEILING
  0
3DFACE
  8
ZN_1_FLR_1_SEC_5
 62
 15
 10
        3.65600
 20
        3.65600
 30
        3.80000
 11
       15.09500
 21
        3.65600
 31
        3.80000
 12
       15.09500
 22
        5.71950
 32
        3.80000
 13
        3.65600
 23
        5.71950
 33
        3.80000
999
ZN_1_FLR_2_SEC_5:ZN_1_FLR_2_SEC_5_WALL_1
  0
3DFACE
  8
ZN_1_FLR_2_SEC_5
 62
 43
 10
        3.65600
 20
        3.65600
 30
       11.40000
 11
        3.65600
 21
        3.65600
 31
        7.60000
 12
       15.09500
 22
        3.65600
 32
        7.60000
 13
       15.09500
 23
        3.65600
 33
       11.40000
999
ZN_1_FLR_2_SEC_5:ZN_1_FLR_2_SEC_5_WALL_2
  0
3DFACE
  8
ZN_1_FLR_2_SEC_5
 62
 43
 10
       15.09500
 20
        3.65600
 30
       11.40000
 11
       15.09500
 21
        3.65600
 31
        7.60000
 12
       15.09500
 22
        5.71950
 32
        7.60000
 13
       15.09500
 23
        5.71950
 33
       11.40000
999
ZN_1_FLR_2_SEC_5:ZN_1_FLR_2_SEC_5_WALL_3
  0
3DFACE
  8
ZN_1_FLR_2_SEC_5
 62
 43
 10
       15.09500
 20
        5.71950
 30
       11.40000
 11
       15.09500
 21
        5.71950
 31
        7.60000
 12
        3.65600
 22
        5.71950
 32
        7.60000
 13
        3.65600
 23
        5.71950
 33
       11.40000
999
ZN_1_FLR_2_SEC_5:ZN_1_FLR_2_SEC_5_WALL_4
  0
3DFACE
  8
ZN_1_FLR_2_SEC_5
 62
 43
 10
        3.65600
 20
        5.71950
 30
       11.40000
 11
        3.65600
 21
        5.71950
 31
        7.60000
 12
        3.65600
 22
        3.65600
 32
        7.60000
 13
        3.65600
 23
        3.65600
 33
       11.40000
999
ZN_1_FLR_2_SEC_5:ZN_1_FLR_2_SEC_5_FLOOR
  0
3DFACE
  8
ZN_1_FLR_2_SEC_5
 62
  8
 10
        3.65600
 20
        5.71950
 30
        7.60000
 11
       15.09500
 21
        5.71950
 31
        7.60000
 12
       15.09500
 22
        3.65600
 32
        7.60000
 13
        3.65600
 23
        3.65600
 33
        7.60000
999
ZN_1_FLR_2_SEC_5:ZN_1_FLR_2_SEC_5_CEILING
  0
3DFACE
  8
ZN_1_FLR_2_SEC_5
 62
 15
 10
        3.65600
 20
        3.65600
 30
       11.40000
 11
       15.09500
 21
        3.65600
 31
       11.40000
 12
       15.09500
 22
        5.71950
 32
       11.40000
 13
        3.65600
 23
        5.71950
 33
       11.40000
999
ZN_1_FLR_3_SEC_5:ZN_1_FLR_3_SEC_5_WALL_1
  0
3DFACE
  8
ZN_1_FLR_3_SEC_5
 62
 43
 10
        3.65600
 20
        3.65600
 30
       19.00000
 11
        3.65600
 21
        3.65600
 31
       15.20000
 12
       15.09500
 22
        3.65600
 32
       15.20000
 13
       15.09500
 23
        3.65600
 33
       19.00000
999
ZN_1_FLR_3_SEC_5:ZN_1_FLR_3_SEC_5_WALL_2
  0
3DFACE
  8
ZN_1_FLR_3_SEC_5
 62
 43
 10
       15.09500
 20
        3.65600
 30
       19.00000
 11
       15.09500
 21
        3.65600
 31
       15.20000
 12
       15.09500
 22
        5.71950
 32
       15.20000
 13
       15.09500
 23
        5.71950
 33
       19.00000
999
ZN_1_FLR_3_SEC_5:ZN_1_FLR_3_SEC_5_WALL_3
  0
3DFACE
  8
ZN_1_FLR_3_SEC_5
 62
 43
 10
       15.09500
 20
        5.71950
 30
       19.00000
 11
       15.09500
 21
        5.71950
 31
       15.20000
 12
        3.65600
 22
        5.71950
 32
       15.20000
 13
        3.65600
 23
        5.71950
 33
       19.00000
999
ZN_1_FLR_3_SEC_5:ZN_1_FLR_3_SEC_5_WALL_4
  0
3DFACE
  8
ZN_1_FLR_3_SEC_5
 62
 43
 10
        3.65600
 20
        5.71950
 30
       19.00000
 11
        3.65600
 21
        5.71950
 31
       15.20000
 12
        3.65600
 22
        3.65600
 32
       15.20000
 13
        3.65600
 23
        3.65600
 33
       19.00000
999
ZN_1_FLR_3_SEC_5:ZN_1_FLR_3_SEC_5_FLOOR
  0
3DFACE
  8
ZN_1_FLR_3_SEC_5
 62
  8
 10
        3.65600
 20
        5.71950
 30
       15.20000
 11
       15.09500
 21
        5.71950
 31
       15.20000
 12
       15.09500
 22
        3.65600
 32
       15.20000
 13
        3.65600
 23
        3.65600
 33
       15.20000
999
ZN_1_FLR_3_SEC_5:ZN_1_FLR_3_SEC_5_CEILING
  0
3DFACE
  8
ZN_1_FLR_3_SEC_5
 62
 15
 10
        3.65600
 20
        3.65600
 30
       19.00000
 11
       15.09500
 21
        3.65600
 31
       19.00000
 12
       15.09500
 22
        5.71950
 32
       19.00000
 13
        3.65600
 23
        5.71950
 33
       19.00000
  0
ENDSEC
  0
EOF
