Program Version,EnergyPlus, Linux, VERSION 7.1.0.012, YMD=2012.07.30 17:28,IDD_Version 7.1.0.012
   ** Severe  ** IP: The IDF file has no records.
   ** Severe  ** IP: Required Object="BUILDING" not found in IDF.
   ** Severe  ** IP: Required Object="GLOBALGEOMETRYRULES" not found in IDF.
   ** Severe  ** IP: Other miscellaneous errors found in input
   ** Severe  ** IP: Out of "range" values and/or blank required fields found in input
   **  Fatal  ** IP: Errors occurred on processing IDF file. Preceding condition(s) cause termination.
   ...Summary of Errors that led to program termination:
   ..... Reference severe error count=5
   ..... Last severe error=IP: Out of "range" values and/or blank required fields found in input
   ************* Warning:  Node connection errors not checked - most system input has not been read (see previous warning).
   ************* Fatal error -- final processing.  Program exited before simulations began.  See previous error messages.
   ************* EnergyPlus Warmup Error Summary. During Warmup: 0 Warning; 0 Severe Errors.
   ************* EnergyPlus Sizing Error Summary. During Sizing: 0 Warning; 0 Severe Errors.
   ************* EnergyPlus Terminated--Fatal Error Detected. 0 Warning; 5 Severe Errors; Elapsed Time=00hr 00min  0.54sec
